@<TRIPOS>MOLECULE
(6469231)_1_1
 36 38 1 0 0
SMALL
GASTEIGER
Energy = 0
mmff94s_NoEstat = 21.29
@<TRIPOS>ATOM
      1 C1         47.6856   83.2281   53.8680 C.ar      1 <1>         0.1482
      2 N1         46.5252   83.9070   54.0641 N.ar      1 <1>        -0.3265
      3 C2         45.7004   83.4727   53.0620 C.ar      1 <1>         0.0689
      4 C3         44.3737   83.8137   52.7593 C.ar      1 <1>        -0.0361
      5 C4         43.7590   83.1911   51.6512 C.ar      1 <1>        -0.0597
      6 C5         44.4640   82.2444   50.8699 C.ar      1 <1>        -0.0596
      7 C6         45.7953   81.9031   51.1841 C.ar      1 <1>        -0.0342
      8 C7         46.3810   82.5360   52.2826 C.ar      1 <1>         0.0911
      9 N2         47.5921   82.4214   52.8364 N.ar      1 <1>        -0.2133
     10 N3         48.6569   81.7151   52.6355 N.ar      1 <1>        -0.1687
     11 C8         49.5444   82.1073   53.6007 C.ar      1 <1>         0.0758
     12 C9         48.9361   83.0692   54.4309 C.ar      1 <1>         0.0827
     13 C10        49.5324   83.7577   55.5908 C.2       1 <1>         0.1682
     14 O1         49.9350   83.0779   56.5687 O.2       1 <1>        -0.2919
     15 C11        49.5572   85.2591   55.6813 C.3       1 <1>         0.0078
     16 C12        50.9268   85.7961   55.2765 C.3       1 <1>        -0.0582
     17 C13        50.8894   81.4683   53.8308 C.3       1 <1>        -0.0107
     18 C14        50.9714   80.0332   53.3159 C.3       1 <1>        -0.0598
     19 C15        46.1645   84.7659   55.1902 C.3       1 <1>         0.0138
     20 H1         43.8304   84.5415   53.3573 H         1 <1>         0.0639
     21 H2         42.7312   83.4417   51.3951 H         1 <1>         0.0618
     22 H3         43.9741   81.7735   50.0197 H         1 <1>         0.0618
     23 H4         46.3492   81.1737   50.5968 H         1 <1>         0.0639
     24 H5         48.7945   85.7094   55.0084 H         1 <1>         0.0342
     25 H6         49.3326   85.5724   56.7269 H         1 <1>         0.0342
     26 H7         51.1580   85.5111   54.2242 H         1 <1>         0.0234
     27 H8         50.9320   86.9067   55.3545 H         1 <1>         0.0234
     28 H9         51.7181   85.3877   55.9465 H         1 <1>         0.0234
     29 H10        51.6608   82.0831   53.3141 H         1 <1>         0.0326
     30 H11        51.1248   81.4568   54.9187 H         1 <1>         0.0326
     31 H12        50.2022   79.4003   53.8147 H         1 <1>         0.0233
     32 H13        51.9790   79.6143   53.5379 H         1 <1>         0.0233
     33 H14        50.8105   80.0057   52.2140 H         1 <1>         0.0233
     34 H15        45.0898   84.6381   55.4518 H         1 <1>         0.0456
     35 H16        46.3438   85.8307   54.9210 H         1 <1>         0.0456
     36 H17        46.7620   84.5052   56.0926 H         1 <1>         0.0456
@<TRIPOS>BOND
     1    1    9 ar
     2    1   12 ar
     3    1    2 ar
     4    2    3 ar
     5    3    8 ar
     6    3    4 ar
     7    4    5 ar
     8    5    6 ar
     9    6    7 ar
    10    7    8 ar
    11    8    9 ar
    12    9   10 ar
    13   10   11 ar
    14   11   12 ar
    15   12   13 1
    16   13   14 2
    17   13   15 1
    18   15   16 1
    19   11   17 1
    20   17   18 1
    21    2   19 1
    22    4   20 1
    23    5   21 1
    24    6   22 1
    25    7   23 1
    26   15   24 1
    27   15   25 1
    28   16   26 1
    29   16   27 1
    30   16   28 1
    31   17   29 1
    32   17   30 1
    33   18   31 1
    34   18   32 1
    35   18   33 1
    36   19   34 1
    37   19   35 1
    38   19   36 1
@<TRIPOS>MOLECULE
(7681200)_1_1
 25 26 1 0 0
SMALL
GASTEIGER
Energy = 0
mmff94s_NoEstat = 26.69
@<TRIPOS>ATOM
      1 N1         48.9603   83.3790   53.9851 N.ar      1 <1>        -0.3063
      2 C1         49.8608   83.1934   54.9774 C.ar      1 <1>         0.1755
      3 N2         49.1929   82.8183   56.0846 N.ar      1 <1>        -0.2540
      4 N3         47.9228   82.7449   55.8206 N.ar      1 <1>        -0.1533
      5 C2         47.7539   83.0792   54.5229 C.ar      1 <1>         0.1624
      6 C3         46.4520   83.0932   53.8328 C.ar      1 <1>         0.0194
      7 C4         45.6757   84.2642   53.8141 C.ar      1 <1>        -0.0510
      8 C5         44.4502   84.2822   53.1327 C.ar      1 <1>        -0.0608
      9 C6         43.9929   83.1293   52.4765 C.ar      1 <1>        -0.0588
     10 C7         44.7438   81.9382   52.5213 C.ar      1 <1>        -0.0498
     11 C8         45.9913   81.9380   53.1762 C.ar      1 <1>        -0.0481
     12 C9         44.3023   80.7356   51.7338 C.3       1 <1>        -0.0397
     13 S1         51.3010   83.3724   54.8968 S.2       1 <1>        -0.0115
     14 C10        49.2264   83.7136   52.5800 C.3       1 <1>         0.0157
     15 H1         49.6184   82.6109   57.0215 H         1 <1>         0.1910
     16 H2         46.0249   85.1639   54.3188 H         1 <1>         0.0625
     17 H3         43.8560   85.1938   53.1075 H         1 <1>         0.0618
     18 H4         43.0470   83.1639   51.9380 H         1 <1>         0.0620
     19 H5         46.6048   81.0373   53.1801 H         1 <1>         0.0627
     20 H6         43.7033   81.0398   50.8451 H         1 <1>         0.0278
     21 H7         45.1792   80.1511   51.3732 H         1 <1>         0.0278
     22 H8         43.6772   80.0835   52.3840 H         1 <1>         0.0278
     23 H9         49.3233   84.8177   52.4774 H         1 <1>         0.0457
     24 H10        48.4023   83.3637   51.9174 H         1 <1>         0.0457
     25 H11        50.1686   83.2326   52.2318 H         1 <1>         0.0457
@<TRIPOS>BOND
     1    1    5 ar
     2    1    2 ar
     3    2    3 ar
     4    3    4 ar
     5    4    5 ar
     6    5    6 1
     7    6   11 ar
     8    6    7 ar
     9    7    8 ar
    10    8    9 ar
    11    9   10 ar
    12   10   11 ar
    13   10   12 1
    14    2   13 2
    15    1   14 1
    16    3   15 1
    17    7   16 1
    18    8   17 1
    19    9   18 1
    20   11   19 1
    21   12   20 1
    22   12   21 1
    23   12   22 1
    24   14   23 1
    25   14   24 1
    26   14   25 1
@<TRIPOS>MOLECULE
(7589213)_1_20
 27 28 1 0 0
SMALL
GASTEIGER
Energy = 0
mmff94s_NoEstat = 32.39
@<TRIPOS>ATOM
      1 S1         48.0520   81.7266   52.4870 S.o2      1 <1>         0.0787
      2 C1         49.3181   82.7020   53.3069 C.ar      1 <1>         0.1470
      3 C2         50.6041   82.2752   53.6171 C.ar      1 <1>        -0.0264
      4 C3         51.3121   83.3044   54.2420 C.ar      1 <1>        -0.0343
      5 C4         50.5100   84.4329   54.3515 C.ar      1 <1>         0.0798
      6 S2         49.1712   84.1255   53.7545 S.2       1 <1>        -0.0567
      7 Cl1        50.9727   85.9893   55.0719 Cl        1 <1>        -0.0758
      8 N1         46.6725   81.4305   53.4095 N.pl3     1 <1>        -0.2155
      9 C5         45.8750   82.4483   53.8869 C.ar      1 <1>         0.0510
     10 C6         46.2645   83.1304   55.0546 C.ar      1 <1>        -0.0391
     11 C7         45.4782   84.1714   55.5658 C.ar      1 <1>        -0.0600
     12 C8         44.2899   84.5321   54.9190 C.ar      1 <1>        -0.0614
     13 C9         43.8775   83.8401   53.7715 C.ar      1 <1>        -0.0570
     14 C10        44.6417   82.7681   53.2649 C.ar      1 <1>        -0.0281
     15 C11        44.1987   82.0958   51.9890 C.3       1 <1>        -0.0379
     16 O1         47.6484   82.4251   51.1865 O.2       1 <1>        -0.1495
     17 O2         48.6500   80.3757   52.0861 O.2       1 <1>        -0.1495
     18 H1         51.0010   81.2846   53.4047 H         1 <1>         0.0643
     19 H2         52.3408   83.2342   54.5893 H         1 <1>         0.0638
     20 H3         46.4233   80.4898   53.6090 H         1 <1>         0.1737
     21 H4         47.1833   82.8539   55.5684 H         1 <1>         0.0636
     22 H5         45.7929   84.7021   56.4626 H         1 <1>         0.0618
     23 H6         43.6850   85.3491   55.3086 H         1 <1>         0.0618
     24 H7         42.9509   84.1365   53.2818 H         1 <1>         0.0621
     25 H8         43.5690   82.7768   51.3722 H         1 <1>         0.0278
     26 H9         45.0678   81.7885   51.3668 H         1 <1>         0.0278
     27 H10        43.6036   81.1908   52.2442 H         1 <1>         0.0278
@<TRIPOS>BOND
     1    1    2 1
     2    2    6 ar
     3    2    3 ar
     4    3    4 ar
     5    4    5 ar
     6    5    6 ar
     7    5    7 1
     8    1    8 1
     9    8    9 1
    10    9   14 ar
    11    9   10 ar
    12   10   11 ar
    13   11   12 ar
    14   12   13 ar
    15   13   14 ar
    16   14   15 1
    17    1   16 2
    18    1   17 2
    19    3   18 1
    20    4   19 1
    21    8   20 1
    22   10   21 1
    23   11   22 1
    24   12   23 1
    25   13   24 1
    26   15   25 1
    27   15   26 1
    28   15   27 1
@<TRIPOS>MOLECULE
(7544728)_1_4
 44 45 1 0 0
SMALL
GASTEIGER
Energy = 0
mmff94s_NoEstat = 13.61
@<TRIPOS>ATOM
      1 C1         47.9893   83.2987   54.5660 C.ar      1 <1>         0.1987
      2 N1         47.1960   82.7763   53.5935 N.ar      1 <1>        -0.2207
      3 C2         47.6851   82.0369   52.5637 C.ar      1 <1>         0.0500
      4 C3         49.0506   81.7326   52.5534 C.ar      1 <1>         0.0244
      5 C4         49.8706   82.2581   53.5588 C.ar      1 <1>         0.2554
      6 N2         49.3458   83.0560   54.5551 N.ar      1 <1>        -0.2813
      7 C5         50.2225   83.5635   55.6364 C.3       1 <1>         0.0264
      8 C6         50.8884   84.8715   55.2223 C.3       1 <1>        -0.0469
      9 O1         51.0998   81.9907   53.5305 O.2       1 <1>        -0.2675
     10 C7         46.7407   81.4115   51.5660 C.3       1 <1>        -0.0104
     11 C8         45.3533   81.1009   52.1493 C.3       1 <1>        -0.0505
     12 C9         44.4291   80.4435   51.1279 C.3       1 <1>        -0.0649
     13 N3         47.3666   84.0046   55.5738 N.pl3     1 <1>        -0.3119
     14 C10        46.8698   85.3256   55.3916 C.3       1 <1>         0.0233
     15 C11        45.6949   85.4191   54.3909 C.3       1 <1>        -0.0345
     16 C12        44.4290   84.7390   54.9287 C.3       1 <1>        -0.0514
     17 C13        44.0058   85.3553   56.2692 C.3       1 <1>        -0.0529
     18 C14        45.1474   85.3277   57.2957 C.3       1 <1>        -0.0514
     19 C15        46.4373   85.9566   56.7363 C.3       1 <1>        -0.0345
     20 H1         49.4764   81.1006   51.7764 H         1 <1>         0.0690
     21 H2         49.6629   83.7335   56.5843 H         1 <1>         0.0491
     22 H3         51.0163   82.8199   55.8843 H         1 <1>         0.0491
     23 H4         51.5083   84.7149   54.3105 H         1 <1>         0.0247
     24 H5         50.1179   85.6447   55.0076 H         1 <1>         0.0247
     25 H6         51.5450   85.2365   56.0441 H         1 <1>         0.0247
     26 H7         46.6298   82.1178   50.7115 H         1 <1>         0.0328
     27 H8         47.1791   80.4622   51.1781 H         1 <1>         0.0328
     28 H9         45.4638   80.4185   53.0241 H         1 <1>         0.0266
     29 H10        44.8723   82.0448   52.4983 H         1 <1>         0.0266
     30 H11        44.8601   79.4775   50.7791 H         1 <1>         0.0230
     31 H12        44.2796   81.1153   50.2521 H         1 <1>         0.0230
     32 H13        43.4389   80.2432   51.5966 H         1 <1>         0.0230
     33 H14        47.2862   83.5509   56.4543 H         1 <1>         0.1491
     34 H15        47.7011   85.9509   54.9884 H         1 <1>         0.0498
     35 H16        45.4682   86.4945   54.1998 H         1 <1>         0.0283
     36 H17        45.9713   84.9780   53.4082 H         1 <1>         0.0283
     37 H18        43.6037   84.8605   54.1899 H         1 <1>         0.0266
     38 H19        44.6178   83.6475   55.0583 H         1 <1>         0.0266
     39 H20        43.6868   86.4110   56.1034 H         1 <1>         0.0265
     40 H21        43.1330   84.7921   56.6726 H         1 <1>         0.0265
     41 H22        44.8324   85.8857   58.2073 H         1 <1>         0.0266
     42 H23        45.3408   84.2721   57.5959 H         1 <1>         0.0266
     43 H24        46.2649   87.0486   56.5874 H         1 <1>         0.0283
     44 H25        47.2562   85.8484   57.4849 H         1 <1>         0.0283
@<TRIPOS>BOND
     1    1    6 ar
     2    1    2 ar
     3    2    3 ar
     4    3    4 ar
     5    4    5 ar
     6    5    6 ar
     7    6    7 1
     8    7    8 1
     9    5    9 2
    10    3   10 1
    11   10   11 1
    12   11   12 1
    13    1   13 1
    14   13   14 1
    15   14   19 1
    16   14   15 1
    17   15   16 1
    18   16   17 1
    19   17   18 1
    20   18   19 1
    21    4   20 1
    22    7   21 1
    23    7   22 1
    24    8   23 1
    25    8   24 1
    26    8   25 1
    27   10   26 1
    28   10   27 1
    29   11   28 1
    30   11   29 1
    31   12   30 1
    32   12   31 1
    33   12   32 1
    34   13   33 1
    35   14   34 1
    36   15   35 1
    37   15   36 1
    38   16   37 1
    39   16   38 1
    40   17   39 1
    41   17   40 1
    42   18   41 1
    43   18   42 1
    44   19   43 1
    45   19   44 1
@<TRIPOS>MOLECULE
(TK_1KIMpdb_1_2
 31 32 1 0 0
SMALL
GASTEIGER
Energy = 0
mmff94s_NoEstat = 35.81
@<TRIPOS>ATOM
      1 O1         45.6616   84.9721   55.6199 O.2       1 <1>        -0.2521
      2 C1         45.6246   84.1031   54.6795 C.2       1 <1>         0.3107
      3 N1         44.4730   84.0149   53.8674 N.am      1 <1>        -0.2394
      4 H1         43.6443   84.6745   54.0403 H         1 <1>         0.1591
      5 C2         44.4107   83.0577   52.8265 C.2       1 <1>         0.2292
      6 O2         43.3568   83.0004   52.1012 O.2       1 <1>        -0.2747
      7 C3         45.5490   82.1278   52.5773 C.2       1 <1>         0.0803
      8 C4         45.5209   81.1496   51.4270 C.3       1 <1>        -0.0484
      9 H2         45.1026   80.1825   51.7858 H         1 <1>         0.0241
     10 H3         46.5420   80.9703   51.0185 H         1 <1>         0.0241
     11 H4         44.8835   81.5291   50.5969 H         1 <1>         0.0241
     12 C5         46.6486   82.2424   53.3510 C.2       1 <1>         0.0642
     13 H5         47.4928   81.5797   53.1606 H         1 <1>         0.0531
     14 N2         46.7334   83.2314   54.4460 N.am      1 <1>        -0.2534
     15 C6         47.9564   83.3344   55.3088 C.3       1 <1>         0.1317
     16 H6         47.6492   83.2822   56.3816 H         1 <1>         0.0811
     17 O3         48.8721   82.2336   55.0724 O.3       1 <1>        -0.3505
     18 C7         50.1788   82.8006   54.7979 C.3       1 <1>         0.1098
     19 H7         50.9561   82.2161   55.3428 H         1 <1>         0.0646
     20 C8         50.4873   82.7052   53.2922 C.3       1 <1>         0.0729
     21 H8         51.4574   83.2110   53.0774 H         1 <1>         0.0584
     22 H9         49.6836   83.2120   52.7087 H         1 <1>         0.0584
     23 O4         50.5831   81.3218   52.8855 O.3       1 <1>        -0.3924
     24 H10        50.7342   81.3258   51.8606 H         1 <1>         0.2095
     25 C9         50.1428   84.2257   55.3544 C.3       1 <1>         0.0874
     26 H11        50.2881   84.1933   56.4633 H         1 <1>         0.0621
     27 O5         51.0912   85.1327   54.7457 O.3       1 <1>        -0.3890
     28 H12        52.0135   84.9305   55.1733 H         1 <1>         0.2099
     29 C10        48.7179   84.6360   55.0690 C.3       1 <1>         0.0190
     30 H13        48.6161   84.9588   54.0064 H         1 <1>         0.0332
     31 H14        48.3780   85.4589   55.7388 H         1 <1>         0.0332
@<TRIPOS>BOND
     1    1    2 2
     2    2    3 am
     3    2   14 am
     4    3    4 1
     5    3    5 am
     6    5    6 2
     7    5    7 1
     8    7    8 1
     9    7   12 2
    10    8    9 1
    11    8   10 1
    12    8   11 1
    13   12   13 1
    14   12   14 1
    15   14   15 1
    16   15   16 1
    17   15   17 1
    18   15   29 1
    19   17   18 1
    20   18   19 1
    21   18   20 1
    22   18   25 1
    23   20   21 1
    24   20   22 1
    25   20   23 1
    26   23   24 1
    27   25   26 1
    28   25   27 1
    29   25   29 1
    30   27   28 1
    31   29   30 1
    32   29   31 1
