@<TRIPOS>MOLECULE
(6469231)_1_1
 36 38 1 0 0
SMALL
GASTEIGER
Energy = 0
mmff94s_NoEstat = 21.29
@<TRIPOS>ATOM
      1 C1         47.6664   83.2301   53.8771 C.ar      1 <1>         0.1482
      2 N1         46.5013   83.8988   54.0742 N.ar      1 <1>        -0.3265
      3 C2         45.6835   83.4660   53.0657 C.ar      1 <1>         0.0689
      4 C3         44.3546   83.7967   52.7620 C.ar      1 <1>        -0.0361
      5 C4         43.7500   83.1796   51.6453 C.ar      1 <1>        -0.0597
      6 C5         44.4682   82.2505   50.8549 C.ar      1 <1>        -0.0596
      7 C6         45.8022   81.9202   51.1692 C.ar      1 <1>        -0.0342
      8 C7         46.3771   82.5448   52.2782 C.ar      1 <1>         0.0911
      9 N2         47.5873   82.4360   52.8352 N.ar      1 <1>        -0.2133
     10 N3         48.6629   81.7456   52.6300 N.ar      1 <1>        -0.1687
     11 C8         49.5400   82.1367   53.6056 C.ar      1 <1>         0.0758
     12 C9         48.9131   83.0760   54.4462 C.ar      1 <1>         0.0827
     13 C10        49.4898   83.7506   55.6216 C.2       1 <1>         0.1682
     14 O1         49.8060   83.0683   56.6289 O.2       1 <1>        -0.2919
     15 C11        49.5812   85.2498   55.6864 C.3       1 <1>         0.0078
     16 C12        50.9631   85.7138   55.2345 C.3       1 <1>        -0.0582
     17 C13        50.8938   81.5191   53.8383 C.3       1 <1>        -0.0107
     18 C14        50.9984   80.0850   53.3268 C.3       1 <1>        -0.0598
     19 C15        46.1375   84.7509   55.2042 C.3       1 <1>         0.0138
     20 H1         43.8016   84.5113   53.3671 H         1 <1>         0.0639
     21 H2         42.7205   83.4223   51.3889 H         1 <1>         0.0618
     22 H3         43.9860   81.7854   49.9970 H         1 <1>         0.0618
     23 H4         46.3655   81.2040   50.5748 H         1 <1>         0.0639
     24 H5         48.8173   85.7189   55.0271 H         1 <1>         0.0342
     25 H6         49.3990   85.5914   56.7314 H         1 <1>         0.0342
     26 H7         51.1515   85.3980   54.1823 H         1 <1>         0.0234
     27 H8         51.0248   86.8241   55.2899 H         1 <1>         0.0234
     28 H9         51.7526   85.2795   55.8905 H         1 <1>         0.0234
     29 H10        51.6562   82.1451   53.3216 H         1 <1>         0.0326
     30 H11        51.1269   81.5155   54.9272 H         1 <1>         0.0326
     31 H12        50.2392   79.4411   53.8265 H         1 <1>         0.0233
     32 H13        52.0123   79.6832   53.5506 H         1 <1>         0.0233
     33 H14        50.8389   80.0529   52.2249 H         1 <1>         0.0233
     34 H15        45.0619   84.6229   55.4612 H         1 <1>         0.0456
     35 H16        46.3205   85.8167   54.9416 H         1 <1>         0.0456
     36 H17        46.7332   84.4852   56.1064 H         1 <1>         0.0456
@<TRIPOS>BOND
     1    1    9 ar
     2    1   12 ar
     3    1    2 ar
     4    2    3 ar
     5    3    8 ar
     6    3    4 ar
     7    4    5 ar
     8    5    6 ar
     9    6    7 ar
    10    7    8 ar
    11    8    9 ar
    12    9   10 ar
    13   10   11 ar
    14   11   12 ar
    15   12   13 1
    16   13   14 2
    17   13   15 1
    18   15   16 1
    19   11   17 1
    20   17   18 1
    21    2   19 1
    22    4   20 1
    23    5   21 1
    24    6   22 1
    25    7   23 1
    26   15   24 1
    27   15   25 1
    28   16   26 1
    29   16   27 1
    30   16   28 1
    31   17   29 1
    32   17   30 1
    33   18   31 1
    34   18   32 1
    35   18   33 1
    36   19   34 1
    37   19   35 1
    38   19   36 1
@<TRIPOS>MOLECULE
(7681200)_1_1
 25 26 1 0 0
SMALL
GASTEIGER
Energy = 0
mmff94s_NoEstat = 26.69
@<TRIPOS>ATOM
      1 N1         48.9599   83.3890   53.9898 N.ar      1 <1>        -0.3063
      2 C1         49.8612   83.1923   54.9790 C.ar      1 <1>         0.1755
      3 N2         49.1962   82.7855   56.0768 N.ar      1 <1>        -0.2540
      4 N3         47.9272   82.7035   55.8100 N.ar      1 <1>        -0.1533
      5 C2         47.7563   83.0658   54.5201 C.ar      1 <1>         0.1624
      6 C3         46.4552   83.0851   53.8289 C.ar      1 <1>         0.0194
      7 C4         45.6913   84.2640   53.7956 C.ar      1 <1>        -0.0510
      8 C5         44.4663   84.2867   53.1137 C.ar      1 <1>        -0.0608
      9 C6         43.9984   83.1316   52.4689 C.ar      1 <1>        -0.0588
     10 C7         44.7381   81.9339   52.5256 C.ar      1 <1>        -0.0498
     11 C8         45.9840   81.9278   53.1837 C.ar      1 <1>        -0.0481
     12 C9         44.2882   80.7288   51.7468 C.3       1 <1>        -0.0397
     13 S1         51.2997   83.3869   54.9040 S.2       1 <1>        -0.0115
     14 C10        49.2231   83.7487   52.5902 C.3       1 <1>         0.0157
     15 H1         49.6228   82.5620   57.0094 H         1 <1>         0.1910
     16 H2         46.0488   85.1654   54.2914 H         1 <1>         0.0625
     17 H3         43.8804   85.2036   53.0791 H         1 <1>         0.0618
     18 H4         43.0536   83.1700   51.9287 H         1 <1>         0.0620
     19 H5         46.5885   81.0213   53.1975 H         1 <1>         0.0627
     20 H6         43.6893   81.0305   50.8572 H         1 <1>         0.0278
     21 H7         45.1615   80.1374   51.3880 H         1 <1>         0.0278
     22 H8         43.6610   80.0839   52.4021 H         1 <1>         0.0278
     23 H9         49.2836   84.8567   52.5009 H         1 <1>         0.0457
     24 H10        48.4146   83.3781   51.9194 H         1 <1>         0.0457
     25 H11        50.1826   83.3033   52.2413 H         1 <1>         0.0457
@<TRIPOS>BOND
     1    1    5 ar
     2    1    2 ar
     3    2    3 ar
     4    3    4 ar
     5    4    5 ar
     6    5    6 1
     7    6   11 ar
     8    6    7 ar
     9    7    8 ar
    10    8    9 ar
    11    9   10 ar
    12   10   11 ar
    13   10   12 1
    14    2   13 2
    15    1   14 1
    16    3   15 1
    17    7   16 1
    18    8   17 1
    19    9   18 1
    20   11   19 1
    21   12   20 1
    22   12   21 1
    23   12   22 1
    24   14   23 1
    25   14   24 1
    26   14   25 1
@<TRIPOS>MOLECULE
(7589213)_1_20
 27 28 1 0 0
SMALL
GASTEIGER
Energy = 0
mmff94s_NoEstat = 32.39
@<TRIPOS>ATOM
      1 S1         48.0518   81.7302   52.4887 S.o2      1 <1>         0.0787
      2 C1         49.3218   82.7010   53.3081 C.ar      1 <1>         0.1470
      3 C2         50.6074   82.2701   53.6143 C.ar      1 <1>        -0.0264
      4 C3         51.3197   83.2957   54.2400 C.ar      1 <1>        -0.0343
      5 C4         50.5210   84.4260   54.3539 C.ar      1 <1>         0.0798
      6 S2         49.1799   84.1239   53.7591 S.2       1 <1>        -0.0567
      7 Cl1        50.9899   85.9793   55.0768 Cl        1 <1>        -0.0758
      8 N1         46.6721   81.4362   53.4115 N.pl3     1 <1>        -0.2155
      9 C5         45.8739   82.4545   53.8870 C.ar      1 <1>         0.0510
     10 C6         46.2626   83.1410   55.0524 C.ar      1 <1>        -0.0391
     11 C7         45.4732   84.1806   55.5619 C.ar      1 <1>        -0.0600
     12 C8         44.2831   84.5358   54.9154 C.ar      1 <1>        -0.0614
     13 C9         43.8717   83.8396   53.7700 C.ar      1 <1>        -0.0570
     14 C10        44.6390   82.7689   53.2654 C.ar      1 <1>        -0.0281
     15 C11        44.1976   82.0904   51.9924 C.3       1 <1>        -0.0379
     16 O1         47.6490   82.4309   51.1891 O.2       1 <1>        -0.1495
     17 O2         48.6459   80.3782   52.0858 O.2       1 <1>        -0.1495
     18 H1         51.0012   81.2790   53.3982 H         1 <1>         0.0643
     19 H2         52.3491   83.2216   54.5846 H         1 <1>         0.0638
     20 H3         46.4229   80.4959   53.6124 H         1 <1>         0.1737
     21 H4         47.1825   82.8685   55.5662 H         1 <1>         0.0636
     22 H5         45.7867   84.7142   56.4574 H         1 <1>         0.0618
     23 H6         43.6758   85.3517   55.3036 H         1 <1>         0.0618
     24 H7         42.9437   84.1318   53.2805 H         1 <1>         0.0621
     25 H8         43.5520   82.7606   51.3802 H         1 <1>         0.0278
     26 H9         45.0677   81.7987   51.3641 H         1 <1>         0.0278
     27 H10        43.6200   81.1750   52.2510 H         1 <1>         0.0278
@<TRIPOS>BOND
     1    1    2 1
     2    2    6 ar
     3    2    3 ar
     4    3    4 ar
     5    4    5 ar
     6    5    6 ar
     7    5    7 1
     8    1    8 1
     9    8    9 1
    10    9   14 ar
    11    9   10 ar
    12   10   11 ar
    13   11   12 ar
    14   12   13 ar
    15   13   14 ar
    16   14   15 1
    17    1   16 2
    18    1   17 2
    19    3   18 1
    20    4   19 1
    21    8   20 1
    22   10   21 1
    23   11   22 1
    24   12   23 1
    25   13   24 1
    26   15   25 1
    27   15   26 1
    28   15   27 1
@<TRIPOS>MOLECULE
(7544728)_1_4
 44 45 1 0 0
SMALL
GASTEIGER
Energy = 0
mmff94s_NoEstat = 13.61
@<TRIPOS>ATOM
      1 C1         47.9474   83.2729   54.5339 C.ar      1 <1>         0.1987
      2 N1         47.1802   82.7473   53.5421 N.ar      1 <1>        -0.2207
      3 C2         47.6998   82.0143   52.5222 C.ar      1 <1>         0.0500
      4 C3         49.0687   81.7250   52.5404 C.ar      1 <1>         0.0244
      5 C4         49.8614   82.2578   53.5637 C.ar      1 <1>         0.2554
      6 N2         49.3066   83.0462   54.5509 N.ar      1 <1>        -0.2813
      7 C5         50.1546   83.5594   55.6526 C.3       1 <1>         0.0264
      8 C6         50.8263   84.8698   55.2554 C.3       1 <1>        -0.0469
      9 O1         51.0940   82.0041   53.5609 O.2       1 <1>        -0.2675
     10 C7         46.7852   81.3766   51.5044 C.3       1 <1>        -0.0104
     11 C8         45.3895   81.0472   52.0563 C.3       1 <1>        -0.0505
     12 C9         44.5013   80.3674   51.0177 C.3       1 <1>        -0.0649
     13 N3         47.2972   83.9727   55.5286 N.pl3     1 <1>        -0.3119
     14 C10        46.8281   85.3002   55.3360 C.3       1 <1>         0.0233
     15 C11        45.5855   85.3799   54.4215 C.3       1 <1>        -0.0345
     16 C12        44.3417   84.7759   55.0856 C.3       1 <1>        -0.0514
     17 C13        44.0409   85.4720   56.4195 C.3       1 <1>        -0.0529
     18 C14        45.2524   85.4455   57.3620 C.3       1 <1>        -0.0514
     19 C15        46.5213   85.9943   56.6836 C.3       1 <1>        -0.0345
     20 H1         49.5180   81.0987   51.7719 H         1 <1>         0.0690
     21 H2         49.5707   83.7283   56.5859 H         1 <1>         0.0491
     22 H3         50.9448   82.8190   55.9201 H         1 <1>         0.0491
     23 H4         51.4686   84.7159   54.3589 H         1 <1>         0.0247
     24 H5         50.0591   85.6411   55.0233 H         1 <1>         0.0247
     25 H6         51.4622   85.2360   56.0927 H         1 <1>         0.0247
     26 H7         46.6843   82.0805   50.6467 H         1 <1>         0.0328
     27 H8         47.2444   80.4329   51.1272 H         1 <1>         0.0328
     28 H9         45.4897   80.3722   52.9381 H         1 <1>         0.0266
     29 H10        44.8857   81.9858   52.3867 H         1 <1>         0.0266
     30 H11        44.9558   79.4054   50.6883 H         1 <1>         0.0230
     31 H12        44.3640   81.0300   50.1330 H         1 <1>         0.0230
     32 H13        43.5027   80.1555   51.4627 H         1 <1>         0.0230
     33 H14        47.1833   83.5145   56.4027 H         1 <1>         0.1491
     34 H15        47.6398   85.8879   54.8448 H         1 <1>         0.0498
     35 H16        45.3797   86.4506   54.1857 H         1 <1>         0.0283
     36 H17        45.7742   84.8711   53.4506 H         1 <1>         0.0283
     37 H18        43.4680   84.8929   54.4038 H         1 <1>         0.0266
     38 H19        44.5030   83.6857   55.2567 H         1 <1>         0.0266
     39 H20        43.7506   86.5308   56.2238 H         1 <1>         0.0265
     40 H21        43.1795   84.9643   56.9116 H         1 <1>         0.0265
     41 H22        45.0251   86.0585   58.2643 H         1 <1>         0.0266
     42 H23        45.4267   84.3986   57.7013 H         1 <1>         0.0266
     43 H24        46.3831   87.0864   56.5048 H         1 <1>         0.0283
     44 H25        47.3887   85.8758   57.3735 H         1 <1>         0.0283
@<TRIPOS>BOND
     1    1    6 ar
     2    1    2 ar
     3    2    3 ar
     4    3    4 ar
     5    4    5 ar
     6    5    6 ar
     7    6    7 1
     8    7    8 1
     9    5    9 2
    10    3   10 1
    11   10   11 1
    12   11   12 1
    13    1   13 1
    14   13   14 1
    15   14   19 1
    16   14   15 1
    17   15   16 1
    18   16   17 1
    19   17   18 1
    20   18   19 1
    21    4   20 1
    22    7   21 1
    23    7   22 1
    24    8   23 1
    25    8   24 1
    26    8   25 1
    27   10   26 1
    28   10   27 1
    29   11   28 1
    30   11   29 1
    31   12   30 1
    32   12   31 1
    33   12   32 1
    34   13   33 1
    35   14   34 1
    36   15   35 1
    37   15   36 1
    38   16   37 1
    39   16   38 1
    40   17   39 1
    41   17   40 1
    42   18   41 1
    43   18   42 1
    44   19   43 1
    45   19   44 1
@<TRIPOS>MOLECULE
(TK_1KIMpdb_1_2
 31 32 1 0 0
SMALL
GASTEIGER
Energy = 0
mmff94s_NoEstat = 35.81
@<TRIPOS>ATOM
      1 O1         45.6317   84.9296   55.6678 O.2       1 <1>        -0.2521
      2 C1         45.6047   84.0786   54.7108 C.2       1 <1>         0.3107
      3 N1         44.4492   83.9836   53.9046 N.am      1 <1>        -0.2394
      4 H1         43.6087   84.6230   54.0957 H         1 <1>         0.1591
      5 C2         44.3995   83.0459   52.8453 C.2       1 <1>         0.2292
      6 O2         43.3421   82.9811   52.1255 O.2       1 <1>        -0.2747
      7 C3         45.5543   82.1441   52.5701 C.2       1 <1>         0.0803
      8 C4         45.5371   81.1915   51.3983 C.3       1 <1>        -0.0484
      9 H2         45.1077   80.2193   51.7297 H         1 <1>         0.0241
     10 H3         46.5619   81.0145   50.9987 H         1 <1>         0.0241
     11 H4         44.9136   81.5951   50.5689 H         1 <1>         0.0241
     12 C5         46.6561   82.2644   53.3397 C.2       1 <1>         0.0642
     13 H5         47.5124   81.6230   53.1321 H         1 <1>         0.0531
     14 N2         46.7281   83.2332   54.4530 N.am      1 <1>        -0.2534
     15 C6         47.9545   83.3437   55.3091 C.3       1 <1>         0.1317
     16 H6         47.6537   83.3079   56.3846 H         1 <1>         0.0811
     17 O3         48.8663   82.2376   55.0834 O.3       1 <1>        -0.3505
     18 C7         50.1759   82.7984   54.8092 C.3       1 <1>         0.1098
     19 H7         50.9478   82.2225   55.3705 H         1 <1>         0.0646
     20 C8         50.4954   82.6744   53.3081 C.3       1 <1>         0.0729
     21 H8         51.4707   83.1695   53.0922 H         1 <1>         0.0584
     22 H9         49.7001   83.1769   52.7096 H         1 <1>         0.0584
     23 O4         50.5844   81.2833   52.9268 O.3       1 <1>        -0.3924
     24 H10        50.7396   81.2677   51.9026 H         1 <1>         0.2095
     25 C9         50.1400   84.2342   55.3389 C.3       1 <1>         0.0874
     26 H11        50.2847   84.2234   56.4481 H         1 <1>         0.0621
     27 O5         51.0888   85.1297   54.7139 O.3       1 <1>        -0.3890
     28 H12        52.0111   84.9340   55.1444 H         1 <1>         0.2099
     29 C10        48.7154   84.6401   55.0450 C.3       1 <1>         0.0190
     30 H13        48.6146   84.9421   53.9763 H         1 <1>         0.0332
     31 H14        48.3742   85.4760   55.6978 H         1 <1>         0.0332
@<TRIPOS>BOND
     1    1    2 2
     2    2    3 am
     3    2   14 am
     4    3    4 1
     5    3    5 am
     6    5    6 2
     7    5    7 1
     8    7    8 1
     9    7   12 2
    10    8    9 1
    11    8   10 1
    12    8   11 1
    13   12   13 1
    14   12   14 1
    15   14   15 1
    16   15   16 1
    17   15   17 1
    18   15   29 1
    19   17   18 1
    20   18   19 1
    21   18   20 1
    22   18   25 1
    23   20   21 1
    24   20   22 1
    25   20   23 1
    26   23   24 1
    27   25   26 1
    28   25   27 1
    29   25   29 1
    30   27   28 1
    31   29   30 1
    32   29   31 1
