@<TRIPOS>MOLECULE
(6469231)_1_1
 36 38 1 0 0
SMALL
GASTEIGER
Energy = 0
mmff94s_NoEstat = 21.29
@<TRIPOS>ATOM
      1 C1         47.4697   83.3514   54.0618 C.ar    1  <1>         0.1482
      2 N1         46.2125   83.8436   54.1829 N.ar    1  <1>        -0.3265
      3 C2         45.4764   83.4034   53.0767 C.ar    1  <1>         0.0689
      4 C3         44.1673   83.6047   52.7050 C.ar    1  <1>        -0.0361
      5 C4         43.7337   83.0101   51.5099 C.ar    1  <1>        -0.0597
      6 C5         44.6027   82.2301   50.7096 C.ar    1  <1>        -0.0596
      7 C6         45.9320   82.0192   51.0773 C.ar    1  <1>        -0.0342
      8 C7         46.3174   82.6161   52.2503 C.ar    1  <1>         0.0911
      9 N2         47.5361   82.6198   52.9100 N.ar    1  <1>        -0.2133
     10 N3         48.7195   82.0696   52.6557 N.ar    1  <1>        -0.1687
     11 C8         49.4420   82.4812   53.7148 C.ar    1  <1>         0.0758
     12 C9         48.7069   83.2903   54.6323 C.ar    1  <1>         0.0827
     13 C10        49.1294   83.9013   55.8545 C.2     1  <1>         0.1682
     14 O1         48.6697   83.5383   56.9708 O.2     1  <1>        -0.2919
     15 C11        50.1799   85.0427   55.8481 C.3     1  <1>         0.0078
     16 C12        51.3206   84.8387   54.8634 C.3     1  <1>        -0.0582
     17 C13        50.8557   82.0744   53.8206 C.3     1  <1>        -0.0107
     18 C14        51.0715   80.5844   53.5321 C.3     1  <1>        -0.0598
     19 C15        45.6915   84.6519   55.2502 C.3     1  <1>         0.0138
     20 H1         43.4849   84.1979   53.3027 H       1  <1>         0.0639
     21 H2         42.7043   83.1505   51.1885 H       1  <1>         0.0618
     22 H3         44.2231   81.7885   49.7915 H       1  <1>         0.0618
     23 H4         46.6021   81.4240   50.4710 H       1  <1>         0.0639
     24 H5         49.6612   85.9737   55.5958 H       1  <1>         0.0342
     25 H6         50.5977   85.1189   56.8575 H       1  <1>         0.0342
     26 H7         50.9460   84.7658   53.8370 H       1  <1>         0.0234
     27 H8         52.0208   85.6783   54.9128 H       1  <1>         0.0234
     28 H9         51.8724   83.9194   55.0858 H       1  <1>         0.0234
     29 H10        51.4936   82.6584   53.1282 H       1  <1>         0.0326
     30 H11        51.2623   82.2963   54.8268 H       1  <1>         0.0326
     31 H12        50.5043   79.9669   54.2369 H       1  <1>         0.0233
     32 H13        52.1282   80.3119   53.6169 H       1  <1>         0.0233
     33 H14        50.7364   80.3329   52.5201 H       1  <1>         0.0233
     34 H15        44.6626   84.3596   55.4751 H       1  <1>         0.0456
     35 H16        45.7033   85.7074   54.9652 H       1  <1>         0.0456
     36 H17        46.2981   84.5253   56.1510 H       1  <1>         0.0456
@<TRIPOS>BOND
     1     1     9   ar
     2     1    12   ar
     3     1     2   ar
     4     2     3   ar
     5     3     8   ar
     6     3     4   ar
     7     4     5   ar
     8     5     6   ar
     9     6     7   ar
    10     7     8   ar
    11     8     9   ar
    12     9    10   ar
    13    10    11   ar
    14    11    12   ar
    15    12    13    1
    16    13    14    2
    17    13    15    1
    18    15    16    1
    19    11    17    1
    20    17    18    1
    21     2    19    1
    22     4    20    1
    23     5    21    1
    24     6    22    1
    25     7    23    1
    26    15    24    1
    27    15    25    1
    28    16    26    1
    29    16    27    1
    30    16    28    1
    31    17    29    1
    32    17    30    1
    33    18    31    1
    34    18    32    1
    35    18    33    1
    36    19    34    1
    37    19    35    1
    38    19    36    1
@<TRIPOS>SUBSTRUCTURE
     1 <1>         1 TEMP              0 ****  ****    0 ROOT


@<TRIPOS>MOLECULE
(7681200)_1_1
 25 26 1 0 0
SMALL
GASTEIGER
Energy = 0
mmff94s_NoEstat = 26.69
@<TRIPOS>ATOM
      1 N1         48.9313   83.3908   53.9402 N.ar    1  <1>        -0.3063
      2 C1         49.8740   83.2617   54.9400 C.ar    1  <1>         0.1755
      3 N2         49.1801   82.8209   56.0650 N.ar    1  <1>        -0.2540
      4 N3         47.8553   82.6874   55.7867 N.ar    1  <1>        -0.1533
      5 C2         47.7495   83.0437   54.5374 C.ar    1  <1>         0.1624
      6 C3         46.4659   83.0649   53.8292 C.ar    1  <1>         0.0194
      7 C4         45.6838   84.2230   53.8275 C.ar    1  <1>        -0.0510
      8 C5         44.4622   84.2434   53.1545 C.ar    1  <1>        -0.0608
      9 C6         44.0180   83.1059   52.4805 C.ar    1  <1>        -0.0588
     10 C7         44.7956   81.9477   52.4797 C.ar    1  <1>        -0.0498
     11 C8         46.0171   81.9273   53.1526 C.ar    1  <1>        -0.0481
     12 C9         44.3205   80.7315   51.7586 C.3     1  <1>        -0.0397
     13 S1         51.5111   83.5456   54.9110 S.2     1  <1>        -0.0115
     14 C10        49.1758   83.7530   52.5468 C.3     1  <1>         0.0157
     15 H1         49.5387   82.6125   56.9881 H       1  <1>         0.1910
     16 H2         46.0206   85.1154   54.3493 H       1  <1>         0.0625
     17 H3         43.8568   85.1452   53.1555 H       1  <1>         0.0618
     18 H4         43.0648   83.1299   51.9592 H       1  <1>         0.0620
     19 H5         46.6214   81.0228   53.1508 H       1  <1>         0.0627
     20 H6         44.1365   80.9673   50.7062 H       1  <1>         0.0278
     21 H7         45.0558   79.9225   51.8046 H       1  <1>         0.0278
     22 H8         43.3907   80.3552   52.1967 H       1  <1>         0.0278
     23 H9         49.5743   84.7689   52.5133 H       1  <1>         0.0457
     24 H10        48.2327   83.7000   51.9984 H       1  <1>         0.0457
     25 H11        49.8964   83.0513   52.1215 H       1  <1>         0.0457
@<TRIPOS>BOND
     1     1     5   ar
     2     1     2   ar
     3     2     3   ar
     4     3     4   ar
     5     4     5   ar
     6     5     6    1
     7     6    11   ar
     8     6     7   ar
     9     7     8   ar
    10     8     9   ar
    11     9    10   ar
    12    10    11   ar
    13    10    12    1
    14     2    13    2
    15     1    14    1
    16     3    15    1
    17     7    16    1
    18     8    17    1
    19     9    18    1
    20    11    19    1
    21    12    20    1
    22    12    21    1
    23    12    22    1
    24    14    23    1
    25    14    24    1
    26    14    25    1
@<TRIPOS>SUBSTRUCTURE
     1 <1>         1 TEMP              0 ****  ****    0 ROOT


@<TRIPOS>MOLECULE
(7589213)_1_20
 27 28 1 0 0
SMALL
GASTEIGER
Energy = 0
mmff94s_NoEstat = 32.39
@<TRIPOS>ATOM
      1 S1         48.0670   81.9888   52.1267 S.o2    1  <1>         0.0787
      2 C1         49.3042   82.6592   53.1993 C.ar    1  <1>         0.1470
      3 C2         50.4545   82.1414   53.7325 C.ar    1  <1>        -0.0264
      4 C3         51.1281   83.0911   54.5537 C.ar    1  <1>        -0.0343
      5 C4         50.4588   84.2938   54.6093 C.ar    1  <1>         0.0798
      6 S2         49.0242   84.2748   53.6748 S.2     1  <1>        -0.0567
      7 Cl1        50.9057   85.7054   55.4720 Cl      1  <1>        -0.0758
      8 N1         46.8405   81.5103   53.2587 N.pl3   1  <1>        -0.2155
      9 C5         46.0048   82.5486   53.7769 C.ar    1  <1>         0.0510
     10 C6         46.5233   83.4263   54.7289 C.ar    1  <1>        -0.0391
     11 C7         45.7241   84.4459   55.2460 C.ar    1  <1>        -0.0600
     12 C8         44.4064   84.5877   54.8112 C.ar    1  <1>        -0.0614
     13 C9         43.8879   83.7101   53.8590 C.ar    1  <1>        -0.0570
     14 C10        44.6871   82.6906   53.3419 C.ar    1  <1>        -0.0281
     15 C11        44.1066   81.7649   52.3227 C.3     1  <1>        -0.0379
     16 O1         47.5644   83.0727   51.3044 O.2     1  <1>        -0.1495
     17 O2         48.6400   80.8053   51.5135 O.2     1  <1>        -0.1495
     18 H1         50.8037   81.1336   53.5489 H       1  <1>         0.0643
     19 H2         52.0567   82.8946   55.0745 H       1  <1>         0.0638
     20 H3         46.3754   80.5968   53.0331 H       1  <1>         0.1737
     21 H4         47.5489   83.3251   55.0747 H       1  <1>         0.0636
     22 H5         46.1280   85.1301   55.9863 H       1  <1>         0.0618
     23 H6         43.7849   85.3827   55.2126 H       1  <1>         0.0618
     24 H7         42.8603   83.8295   53.5257 H       1  <1>         0.0621
     25 H8         43.7547   82.3313   51.4528 H       1  <1>         0.0278
     26 H9         44.8491   81.0313   51.9859 H       1  <1>         0.0278
     27 H10        43.2632   81.1991   52.7369 H       1  <1>         0.0278
@<TRIPOS>BOND
     1     1     2    1
     2     2     6   ar
     3     2     3   ar
     4     3     4   ar
     5     4     5   ar
     6     5     6   ar
     7     5     7    1
     8     1     8    1
     9     8     9    1
    10     9    14   ar
    11     9    10   ar
    12    10    11   ar
    13    11    12   ar
    14    12    13   ar
    15    13    14   ar
    16    14    15    1
    17     1    16    2
    18     1    17    2
    19     3    18    1
    20     4    19    1
    21     8    20    1
    22    10    21    1
    23    11    22    1
    24    12    23    1
    25    13    24    1
    26    15    25    1
    27    15    26    1
    28    15    27    1
@<TRIPOS>SUBSTRUCTURE
     1 <1>         1 TEMP              0 ****  ****    0 ROOT



@<TRIPOS>MOLECULE
(7544728)_1_4
 44 45 1 0 0
SMALL
GASTEIGER
Energy = 0
mmff94s_NoEstat = 13.61
@<TRIPOS>ATOM
      1 C1         47.9883   83.2342   54.6037 C.ar    1  <1>         0.1987
      2 N1         47.1789   82.7508   53.6963 N.ar    1  <1>        -0.2207
      3 C2         47.7078   81.9902   52.6858 C.ar    1  <1>         0.0500
      4 C3         49.0087   81.7016   52.5580 C.ar    1  <1>         0.0244
      5 C4         49.9628   82.2233   53.5576 C.ar    1  <1>         0.2554
      6 N2         49.3774   82.9923   54.5654 N.ar    1  <1>        -0.2813
      7 C5         50.2498   83.5496   55.5976 C.3     1  <1>         0.0264
      8 C6         50.6631   84.9689   55.2675 C.3     1  <1>        -0.0469
      9 O1         51.1571   81.9588   53.4425 O.2     1  <1>        -0.2675
     10 C7         46.7065   81.4787   51.6912 C.3     1  <1>        -0.0104
     11 C8         45.3740   81.1531   52.3555 C.3     1  <1>        -0.0505
     12 C9         44.3396   80.7245   51.3264 C.3     1  <1>        -0.0649
     13 N3         47.4786   83.9808   55.5974 N.pl3   1  <1>        -0.3119
     14 C10        46.9437   85.3078   55.3875 C.3     1  <1>         0.0233
     15 C11        45.8654   85.3014   54.2989 C.3     1  <1>        -0.0345
     16 C12        44.5714   84.6315   54.7613 C.3     1  <1>        -0.0514
     17 C13        44.0524   85.2445   56.0584 C.3     1  <1>        -0.0529
     18 C14        45.1134   85.2286   57.1545 C.3     1  <1>        -0.0514
     19 C15        46.4083   85.8994   56.6959 C.3     1  <1>        -0.0345
     20 H1         49.3986   81.0968   51.7477 H       1  <1>         0.0690
     21 H2         49.7058   83.5160   56.5462 H       1  <1>         0.0491
     22 H3         51.1266   82.9004   55.6773 H       1  <1>         0.0491
     23 H4         51.2034   85.0084   54.3156 H       1  <1>         0.0247
     24 H5         49.7882   85.6218   55.1804 H       1  <1>         0.0247
     25 H6         51.3150   85.3696   56.0498 H       1  <1>         0.0247
     26 H7         46.5673   82.2413   50.9207 H       1  <1>         0.0328
     27 H8         47.1228   80.5897   51.2113 H       1  <1>         0.0328
     28 H9         45.5021   80.3488   53.0900 H       1  <1>         0.0266
     29 H10        44.9976   82.0281   52.8996 H       1  <1>         0.0266
     30 H11        44.6692   79.8302   50.7881 H       1  <1>         0.0230
     31 H12        44.1604   81.5197   50.5956 H       1  <1>         0.0230
     32 H13        43.3889   80.4943   51.8175 H       1  <1>         0.0230
     33 H14        47.4504   83.6014   56.5299 H       1  <1>         0.1491
     34 H15        47.7745   85.9344   55.0430 H       1  <1>         0.0498
     35 H16        45.6436   86.3366   54.0097 H       1  <1>         0.0283
     36 H17        46.2352   84.7926   53.4003 H       1  <1>         0.0283
     37 H18        43.8093   84.7280   53.9794 H       1  <1>         0.0266
     38 H19        44.7417   83.5578   54.9067 H       1  <1>         0.0266
     39 H20        43.7382   86.2788   55.8716 H       1  <1>         0.0265
     40 H21        43.1648   84.6977   56.3958 H       1  <1>         0.0265
     41 H22        44.7301   85.7420   58.0437 H       1  <1>         0.0266
     42 H23        45.3181   84.1925   57.4504 H       1  <1>         0.0266
     43 H24        46.2195   86.9710   56.5524 H       1  <1>         0.0283
     44 H25        47.1613   85.8129   57.4887 H       1  <1>         0.0283
@<TRIPOS>BOND
     1     1     6   ar
     2     1     2   ar
     3     2     3   ar
     4     3     4   ar
     5     4     5   ar
     6     5     6   ar
     7     6     7    1
     8     7     8    1
     9     5     9    2
    10     3    10    1
    11    10    11    1
    12    11    12    1
    13     1    13    1
    14    13    14    1
    15    14    19    1
    16    14    15    1
    17    15    16    1
    18    16    17    1
    19    17    18    1
    20    18    19    1
    21     4    20    1
    22     7    21    1
    23     7    22    1
    24     8    23    1
    25     8    24    1
    26     8    25    1
    27    10    26    1
    28    10    27    1
    29    11    28    1
    30    11    29    1
    31    12    30    1
    32    12    31    1
    33    12    32    1
    34    13    33    1
    35    14    34    1
    36    15    35    1
    37    15    36    1
    38    16    37    1
    39    16    38    1
    40    17    39    1
    41    17    40    1
    42    18    41    1
    43    18    42    1
    44    19    43    1
    45    19    44    1
@<TRIPOS>SUBSTRUCTURE
     1 <1>         1 TEMP              0 ****  ****    0 ROOT


@<TRIPOS>MOLECULE
(TK_1KIMpdb_1_2
 31 32 1 0 0
SMALL
GASTEIGER
Energy = 0
mmff94s_NoEstat = 35.81
@<TRIPOS>ATOM
      1 O1         45.7751   85.0815   55.4309 O.2     1  <1>        -0.2521
      2 C1         45.7328   84.1800   54.5897 C.2     1  <1>         0.3107
      3 N1         44.6270   84.0522   53.7360 N.am    1  <1>        -0.2394
      4 H1         43.8884   84.7387   53.8632 H       1  <1>         0.1591
      5 C2         44.4138   83.1066   52.7407 C.2     1  <1>         0.2292
      6 O2         43.4096   83.0660   52.0376 O.2     1  <1>        -0.2747
      7 C3         45.5184   82.1367   52.6008 C.2     1  <1>         0.0803
      8 C4         45.4644   81.0477   51.5845 C.3     1  <1>        -0.0484
      9 H2         45.2357   80.0969   52.0687 H       1  <1>         0.0241
     10 H3         46.4282   80.9598   51.0806 H       1  <1>         0.0241
     11 H4         44.6931   81.2668   50.8449 H       1  <1>         0.0241
     12 C5         46.6623   82.2346   53.4545 C.2     1  <1>         0.0642
     13 H5         47.4872   81.5373   53.3758 H       1  <1>         0.0531
     14 N2         46.7625   83.2271   54.4164 N.am    1  <1>        -0.2534
     15 C6         47.9284   83.2883   55.2487 C.3     1  <1>         0.1317
     16 H6         47.6145   83.0979   56.2801 H       1  <1>         0.0811
     17 O3         48.8429   82.2482   54.8672 O.3     1  <1>        -0.3505
     18 C7         50.1609   82.8127   54.7307 C.3     1  <1>         0.1098
     19 H7         50.8730   82.1603   55.2463 H       1  <1>         0.0646
     20 C8         50.5210   82.8382   53.2496 C.3     1  <1>         0.0729
     21 H8         51.5033   83.2946   53.1052 H       1  <1>         0.0584
     22 H9         49.7738   83.4022   52.6862 H       1  <1>         0.0584
     23 O4         50.5561   81.5060   52.7632 O.3     1  <1>        -0.3924
     24 H10        50.7822   81.5552   51.8195 H       1  <1>         0.2095
     25 C9         50.0954   84.1790   55.4021 C.3     1  <1>         0.0874
     26 H11        50.2469   84.0730   56.4827 H       1  <1>         0.0621
     27 O5         51.0276   85.1123   54.9028 O.3     1  <1>        -0.3890
     28 H12        51.9095   84.7419   55.0677 H       1  <1>         0.2099
     29 C10        48.6726   84.6047   55.1293 C.3     1  <1>         0.0190
     30 H13        48.5864   85.0334   54.1225 H       1  <1>         0.0332
     31 H14        48.3075   85.3647   55.8273 H       1  <1>         0.0332
@<TRIPOS>BOND
     1     1     2    2
     2     2     3   am
     3     2    14   am
     4     3     4    1
     5     3     5   am
     6     5     6    2
     7     5     7    1
     8     7     8    1
     9     7    12    2
    10     8     9    1
    11     8    10    1
    12     8    11    1
    13    12    13    1
    14    12    14    1
    15    14    15    1
    16    15    16    1
    17    15    17    1
    18    15    29    1
    19    17    18    1
    20    18    19    1
    21    18    20    1
    22    18    25    1
    23    20    21    1
    24    20    22    1
    25    20    23    1
    26    23    24    1
    27    25    26    1
    28    25    27    1
    29    25    29    1
    30    27    28    1
    31    29    30    1
    32    29    31    1
@<TRIPOS>SUBSTRUCTURE
     1 <1>         1 TEMP              0 ****  ****    0 ROOT


