@<TRIPOS>MOLECULE
1tow_1_1
 33 35 0 0 0
SMALL
GASTEIGER
Energy = 14.772375
VDW energy = 20.49
@<TRIPOS>ATOM
      1 C1          5.8140   -2.4150    3.7550 C.2       1<O>11         0.0418
      2 O1          6.6660   -3.2520    3.4970 O.co2     1<O>11        -0.5498
      3 O2          6.0710   -1.1010    3.5490 O.co2     1<O>11        -0.5498
      4 C2          4.4800   -2.8440    4.2990 C.3       1<O>11        -0.0116
      5 C3          4.5510   -2.9200    5.8150 C.3       1<O>11        -0.0299
      6 C4          3.1780   -3.2560    6.3720 C.3       1<O>11         0.0242
      7 N1          2.8700   -4.6350    6.0870 N.ar      1<O>11        -0.3398
      8 C5          1.5360   -5.2920    5.7490 C.ar      1<O>11         0.0501
      9 C6          1.9270   -6.6710    5.2010 C.ar      1<O>11         0.0076
     10 C7          3.0330   -7.0400    6.1620 C.ar      1<O>11         0.0076
     11 C8          3.8880   -5.7690    6.0670 C.ar      1<O>11         0.0501
     12 C9          4.9760   -5.7840    7.1270 C.ar      1<O>11        -0.0376
     13 C10         5.8520   -7.0320    6.9260 C.ar      1<O>11        -0.0598
     14 C11         5.0430   -8.3350    6.8510 C.ar      1<O>11        -0.0611
     15 C12         3.8800   -8.2610    5.8530 C.ar      1<O>11        -0.0520
     16 C13         0.6910   -7.5470    5.1050 C.ar      1<O>11        -0.0520
     17 C14        -0.3030   -6.8850    4.1390 C.ar      1<O>11        -0.0611
     18 C15        -0.5860   -5.4090    4.4660 C.ar      1<O>11        -0.0598
     19 C16         0.6840   -4.5760    4.7160 C.ar      1<O>11        -0.0376
     20 H1          3.6840   -2.0870    3.9940 H         1<O>11         0.0325
     21 H2          4.2110   -3.8690    3.8790 H         1<O>11         0.0325
     22 H3          5.2930   -3.7300    6.1200 H         1<O>11         0.0286
     23 H4          4.8940   -1.9150    6.2290 H         1<O>11         0.0286
     24 H5          3.1740   -3.0910    7.4990 H         1<O>11         0.0492
     25 H6          2.3960   -2.5830    5.8870 H         1<O>11         0.0492
     26 H7          5.1150   -5.0240    7.9120 H         1<O>11         0.0638
     27 H8          6.9500   -6.9950    6.8440 H         1<O>11         0.0618
     28 H9          5.2730   -9.2300    7.4510 H         1<O>11         0.0618
     29 H10         3.6900   -8.9800    5.0400 H         1<O>11         0.0624
     30 H11         0.5340   -8.4980    5.6370 H         1<O>11         0.0624
     31 H12        -0.7670   -7.4160    3.2930 H         1<O>11         0.0618
     32 H13        -1.6020   -4.9880    4.5170 H         1<O>11         0.0618
     33 H14         0.9330   -3.6200    4.2270 H         1<O>11         0.0638
@<TRIPOS>BOND
     1    1    2 ar
     2    1    3 ar
     3    1    4 1
     4    4    5 1
     5    5    6 1
     6    6    7 1
     7    7    8 ar
     8    8    9 ar
     9    9   10 ar
    10   10   11 ar
    11    7   11 ar
    12   11   12 ar
    13   12   13 ar
    14   13   14 ar
    15   14   15 ar
    16   10   15 ar
    17    9   16 ar
    18   16   17 ar
    19   17   18 ar
    20   18   19 ar
    21    8   19 ar
    22    4   20 1
    23    4   21 1
    24    5   22 1
    25    5   23 1
    26    6   24 1
    27    6   25 1
    28   12   26 1
    29   13   27 1
    30   14   28 1
    31   15   29 1
    32   16   30 1
    33   17   31 1
    34   18   32 1
    35   19   33 1
@<TRIPOS>MOLECULE
1tow_1_2
 33 35 0 0 0
SMALL
GASTEIGER
Energy = 14.772375
VDW energy = 20.49
@<TRIPOS>ATOM
      1 C1          5.8140   -2.4150    3.7550 C.2       1<O>11         0.0418
      2 O1          6.6660   -3.2520    3.4970 O.co2     1<O>11        -0.5498
      3 O2          6.0710   -1.1010    3.5490 O.co2     1<O>11        -0.5498
      4 C2          4.4800   -2.8440    4.2990 C.3       1<O>11        -0.0116
      5 C3          4.5510   -2.9200    5.8150 C.3       1<O>11        -0.0299
      6 C4          3.1780   -3.2560    6.3720 C.3       1<O>11         0.0242
      7 N1          2.8700   -4.6350    6.0870 N.ar      1<O>11        -0.3398
      8 C5          1.5360   -5.2920    5.7490 C.ar      1<O>11         0.0501
      9 C6          1.9270   -6.6710    5.2010 C.ar      1<O>11         0.0076
     10 C7          3.0330   -7.0400    6.1620 C.ar      1<O>11         0.0076
     11 C8          3.8880   -5.7690    6.0670 C.ar      1<O>11         0.0501
     12 C9          4.9760   -5.7840    7.1270 C.ar      1<O>11        -0.0376
     13 C10         5.8520   -7.0320    6.9260 C.ar      1<O>11        -0.0598
     14 C11         5.0430   -8.3350    6.8510 C.ar      1<O>11        -0.0611
     15 C12         3.8800   -8.2610    5.8530 C.ar      1<O>11        -0.0520
     16 C13         0.6910   -7.5470    5.1050 C.ar      1<O>11        -0.0520
     17 C14        -0.3030   -6.8850    4.1390 C.ar      1<O>11        -0.0611
     18 C15        -0.5860   -5.4090    4.4660 C.ar      1<O>11        -0.0598
     19 C16         0.6840   -4.5760    4.7160 C.ar      1<O>11        -0.0376
     20 H1          3.6840   -2.0870    3.9940 H         1<O>11         0.0325
     21 H2          4.2110   -3.8690    3.8790 H         1<O>11         0.0325
     22 H3          5.2930   -3.7300    6.1200 H         1<O>11         0.0286
     23 H4          4.8940   -1.9150    6.2290 H         1<O>11         0.0286
     24 H5          3.1740   -3.0910    7.4990 H         1<O>11         0.0492
     25 H6          2.3960   -2.5830    5.8870 H         1<O>11         0.0492
     26 H7          5.1150   -5.0240    7.9120 H         1<O>11         0.0638
     27 H8          6.9500   -6.9950    6.8440 H         1<O>11         0.0618
     28 H9          5.2730   -9.2300    7.4510 H         1<O>11         0.0618
     29 H10         3.6900   -8.9800    5.0400 H         1<O>11         0.0624
     30 H11         0.5340   -8.4980    5.6370 H         1<O>11         0.0624
     31 H12        -0.7670   -7.4160    3.2930 H         1<O>11         0.0618
     32 H13        -1.6020   -4.9880    4.5170 H         1<O>11         0.0618
     33 H14         0.9330   -3.6200    4.2270 H         1<O>11         0.0638
@<TRIPOS>BOND
     1    1    2 ar
     2    1    3 ar
     3    1    4 1
     4    4    5 1
     5    5    6 1
     6    6    7 1
     7    7    8 ar
     8    8    9 ar
     9    9   10 ar
    10   10   11 ar
    11    7   11 ar
    12   11   12 ar
    13   12   13 ar
    14   13   14 ar
    15   14   15 ar
    16   10   15 ar
    17    9   16 ar
    18   16   17 ar
    19   17   18 ar
    20   18   19 ar
    21    8   19 ar
    22    4   20 1
    23    4   21 1
    24    5   22 1
    25    5   23 1
    26    6   24 1
    27    6   25 1
    28   12   26 1
    29   13   27 1
    30   14   28 1
    31   15   29 1
    32   16   30 1
    33   17   31 1
    34   18   32 1
    35   19   33 1
@<TRIPOS>MOLECULE
1tow_1_3
 33 35 0 0 0
SMALL
GASTEIGER
Energy = 11.063673
VDW energy = 20.61
@<TRIPOS>ATOM
      1 C1          5.8140   -2.4150    3.7550 C.2       1<O>11         0.0418
      2 O1          6.6660   -3.2520    3.4970 O.co2     1<O>11        -0.5498
      3 O2          6.0710   -1.1010    3.5490 O.co2     1<O>11        -0.5498
      4 C2          4.4800   -2.8440    4.2990 C.3       1<O>11        -0.0116
      5 C3          3.5130   -3.0740    3.1500 C.3       1<O>11        -0.0299
      6 C4          2.0860   -2.9930    3.6630 C.3       1<O>11         0.0242
      7 N1          1.8360   -4.0940    4.5590 N.ar      1<O>11        -0.3398
      8 C5          0.9390   -5.3160    4.3860 C.ar      1<O>11         0.0501
      9 C6          1.3890   -6.2700    5.5000 C.ar      1<O>11         0.0076
     10 C7          1.5730   -5.2910    6.6360 C.ar      1<O>11         0.0076
     11 C8          2.4650   -4.2550    5.9380 C.ar      1<O>11         0.0501
     12 C9          2.6220   -3.0200    6.8100 C.ar      1<O>11        -0.0376
     13 C10         3.2400   -3.4360    8.1560 C.ar      1<O>11        -0.0598
     14 C11         2.4880   -4.5860    8.8410 C.ar      1<O>11        -0.0611
     15 C12         2.2420   -5.7790    7.9090 C.ar      1<O>11        -0.0520
     16 C13         0.3850   -7.3990    5.6360 C.ar      1<O>11        -0.0520
     17 C14         0.3310   -8.1680    4.3070 C.ar      1<O>11        -0.0611
     18 C15         0.1160   -7.2610    3.0830 C.ar      1<O>11        -0.0598
     19 C16         1.0440   -6.0340    3.0520 C.ar      1<O>11        -0.0376
     20 H1          4.6040   -3.8110    4.8900 H         1<O>11         0.0325
     21 H2          4.0700   -2.0300    4.9830 H         1<O>11         0.0325
     22 H3          3.6750   -2.2760    2.3520 H         1<O>11         0.0286
     23 H4          3.6970   -4.1050    2.7000 H         1<O>11         0.0286
     24 H5          1.9360   -2.0100    4.2190 H         1<O>11         0.0492
     25 H6          1.3610   -3.0460    2.7840 H         1<O>11         0.0492
     26 H7          2.3390   -1.9950    6.5250 H         1<O>11         0.0638
     27 H8          4.1340   -2.9560    8.5850 H         1<O>11         0.0618
     28 H9          2.1580   -4.5570    9.8910 H         1<O>11         0.0618
     29 H10         2.5090   -6.8250    8.1280 H         1<O>11         0.0624
     30 H11        -0.2060   -7.6300    6.5370 H         1<O>11         0.0624
     31 H12         0.4360   -9.2620    4.2380 H         1<O>11         0.0618
     32 H13        -0.6320   -7.4710    2.3020 H         1<O>11         0.0618
     33 H14         1.6770   -5.7280    2.2040 H         1<O>11         0.0638
@<TRIPOS>BOND
     1    1    2 ar
     2    1    3 ar
     3    1    4 1
     4    4    5 1
     5    5    6 1
     6    6    7 1
     7    7    8 ar
     8    8    9 ar
     9    9   10 ar
    10   10   11 ar
    11    7   11 ar
    12   11   12 ar
    13   12   13 ar
    14   13   14 ar
    15   14   15 ar
    16   10   15 ar
    17    9   16 ar
    18   16   17 ar
    19   17   18 ar
    20   18   19 ar
    21    8   19 ar
    22    4   20 1
    23    4   21 1
    24    5   22 1
    25    5   23 1
    26    6   24 1
    27    6   25 1
    28   12   26 1
    29   13   27 1
    30   14   28 1
    31   15   29 1
    32   16   30 1
    33   17   31 1
    34   18   32 1
    35   19   33 1
@<TRIPOS>MOLECULE
1tow_1_4
 33 35 0 0 0
SMALL
GASTEIGER
Energy = 14.999704
VDW energy = 20.66
@<TRIPOS>ATOM
      1 C1          5.8140   -2.4150    3.7550 C.2       1<O>11         0.0418
      2 O1          6.6660   -3.2520    3.4970 O.co2     1<O>11        -0.5498
      3 O2          6.0710   -1.1010    3.5490 O.co2     1<O>11        -0.5498
      4 C2          4.4800   -2.8440    4.2990 C.3       1<O>11        -0.0116
      5 C3          3.5930   -3.3100    3.1570 C.3       1<O>11        -0.0299
      6 C4          2.2810   -3.8370    3.7160 C.3       1<O>11         0.0242
      7 N1          1.4850   -2.7340    4.1900 N.ar      1<O>11        -0.3398
      8 C5          0.5360   -2.6490    5.3810 C.ar      1<O>11         0.0501
      9 C6          0.2970   -1.1450    5.5620 C.ar      1<O>11         0.0076
     10 C7          0.1660   -0.7160    4.1200 C.ar      1<O>11         0.0076
     11 C8          1.4400   -1.3520    3.5470 C.ar      1<O>11         0.0501
     12 C9          1.4420   -1.2600    2.0310 C.ar      1<O>11        -0.0376
     13 C10         1.3550    0.2210    1.6220 C.ar      1<O>11        -0.0598
     14 C11         0.1900    0.9670    2.2870 C.ar      1<O>11        -0.0611
     15 C12         0.1420    0.7700    3.8070 C.ar      1<O>11        -0.0520
     16 C13        -0.8600   -0.9270    6.5200 C.ar      1<O>11        -0.0520
     17 C14        -0.4940   -1.5460    7.8770 C.ar      1<O>11        -0.0611
     18 C15        -0.0090   -3.0020    7.7770 C.ar      1<O>11        -0.0598
     19 C16         1.0540   -3.2260    6.6870 C.ar      1<O>11        -0.0376
     20 H1          4.6280   -3.6990    5.0380 H         1<O>11         0.0325
     21 H2          3.9860   -1.9640    4.8290 H         1<O>11         0.0325
     22 H3          3.3830   -2.4350    2.4570 H         1<O>11         0.0286
     23 H4          4.1200   -4.1400    2.5810 H         1<O>11         0.0286
     24 H5          1.7140   -4.3910    2.8970 H         1<O>11         0.0492
     25 H6          2.4950   -4.5510    4.5790 H         1<O>11         0.0492
     26 H7          1.4960   -2.1130    1.3370 H         1<O>11         0.0638
     27 H8          2.0590    0.6980    0.9220 H         1<O>11         0.0618
     28 H9         -0.5370    1.5810    1.7300 H         1<O>11         0.0618
     29 H10         0.0970    1.5780    4.5540 H         1<O>11         0.0624
     30 H11        -1.8040   -0.4110    6.2810 H         1<O>11         0.0624
     31 H12        -0.5710   -0.9990    8.8300 H         1<O>11         0.0618
     32 H13        -0.3870   -3.8090    8.4240 H         1<O>11         0.0618
     33 H14         2.0270   -3.7220    6.8300 H         1<O>11         0.0638
@<TRIPOS>BOND
     1    1    2 ar
     2    1    3 ar
     3    1    4 1
     4    4    5 1
     5    5    6 1
     6    6    7 1
     7    7    8 ar
     8    8    9 ar
     9    9   10 ar
    10   10   11 ar
    11    7   11 ar
    12   11   12 ar
    13   12   13 ar
    14   13   14 ar
    15   14   15 ar
    16   10   15 ar
    17    9   16 ar
    18   16   17 ar
    19   17   18 ar
    20   18   19 ar
    21    8   19 ar
    22    4   20 1
    23    4   21 1
    24    5   22 1
    25    5   23 1
    26    6   24 1
    27    6   25 1
    28   12   26 1
    29   13   27 1
    30   14   28 1
    31   15   29 1
    32   16   30 1
    33   17   31 1
    34   18   32 1
    35   19   33 1
@<TRIPOS>MOLECULE
1tow_1_5
 33 35 0 0 0
SMALL
GASTEIGER
Energy = 15.230554
VDW energy = 20.76
@<TRIPOS>ATOM
      1 C1          5.8140   -2.4150    3.7550 C.2       1<O>11         0.0418
      2 O1          6.6660   -3.2520    3.4970 O.co2     1<O>11        -0.5498
      3 O2          6.0710   -1.1010    3.5490 O.co2     1<O>11        -0.5498
      4 C2          4.4800   -2.8440    4.2990 C.3       1<O>11        -0.0116
      5 C3          3.6590   -3.4770    3.1890 C.3       1<O>11        -0.0299
      6 C4          2.3520   -4.0010    3.7590 C.3       1<O>11         0.0242
      7 N1          1.4900   -2.8910    4.0770 N.ar      1<O>11        -0.3398
      8 C5          0.4920   -2.7190    5.2180 C.ar      1<O>11         0.0501
      9 C6          0.1810   -1.2170    5.2190 C.ar      1<O>11         0.0076
     10 C7          0.0870   -0.9600    3.7340 C.ar      1<O>11         0.0076
     11 C8          1.4090   -1.5940    3.2800 C.ar      1<O>11         0.0501
     12 C9          1.4660   -1.6720    1.7640 C.ar      1<O>11        -0.0376
     13 C10         1.3300   -0.2520    1.1870 C.ar      1<O>11        -0.0598
     14 C11         0.1080    0.5070    1.7230 C.ar      1<O>11        -0.0611
     15 C12         0.0100    0.4790    3.2540 C.ar      1<O>11        -0.0520
     16 C13        -1.0210   -0.9490    6.1060 C.ar      1<O>11        -0.0520
     17 C14        -0.6820   -1.3940    7.5370 C.ar      1<O>11        -0.0611
     18 C15        -0.1300   -2.8270    7.6190 C.ar      1<O>11        -0.0598
     19 C16         0.9840   -3.1210    6.5980 C.ar      1<O>11        -0.0376
     20 H1          4.6370   -3.6030    5.1350 H         1<O>11         0.0325
     21 H2          3.9270   -1.9350    4.7090 H         1<O>11         0.0325
     22 H3          3.4380   -2.6970    2.3870 H         1<O>11         0.0286
     23 H4          4.2450   -4.3400    2.7290 H         1<O>11         0.0286
     24 H5          1.8420   -4.6700    2.9900 H         1<O>11         0.0492
     25 H6          2.5620   -4.6020    4.7040 H         1<O>11         0.0492
     26 H7          1.5840   -2.5940    1.1740 H         1<O>11         0.0638
     27 H8          2.0390    0.1770    0.4610 H         1<O>11         0.0618
     28 H9         -0.6230    1.0180    1.0760 H         1<O>11         0.0618
     29 H10        -0.1000    1.3630    3.9020 H         1<O>11         0.0624
     30 H11        -1.9770   -0.5100    5.7790 H         1<O>11         0.0624
     31 H12        -0.8200   -0.7480    8.4180 H         1<O>11         0.0618
     32 H13        -0.4970   -3.5730    8.3410 H         1<O>11         0.0618
     33 H14         1.9720   -3.5500    6.8290 H         1<O>11         0.0638
@<TRIPOS>BOND
     1    1    2 ar
     2    1    3 ar
     3    1    4 1
     4    4    5 1
     5    5    6 1
     6    6    7 1
     7    7    8 ar
     8    8    9 ar
     9    9   10 ar
    10   10   11 ar
    11    7   11 ar
    12   11   12 ar
    13   12   13 ar
    14   13   14 ar
    15   14   15 ar
    16   10   15 ar
    17    9   16 ar
    18   16   17 ar
    19   17   18 ar
    20   18   19 ar
    21    8   19 ar
    22    4   20 1
    23    4   21 1
    24    5   22 1
    25    5   23 1
    26    6   24 1
    27    6   25 1
    28   12   26 1
    29   13   27 1
    30   14   28 1
    31   15   29 1
    32   16   30 1
    33   17   31 1
    34   18   32 1
    35   19   33 1
@<TRIPOS>MOLECULE
1tow_1_6
 33 35 0 0 0
SMALL
GASTEIGER
Energy = 18.073469
VDW energy = 22.05
@<TRIPOS>ATOM
      1 C1          5.8140   -2.4150    3.7550 C.2       1<O>11         0.0418
      2 O1          6.6660   -3.2520    3.4970 O.co2     1<O>11        -0.5498
      3 O2          6.0710   -1.1010    3.5490 O.co2     1<O>11        -0.5498
      4 C2          4.4800   -2.8440    4.2990 C.3       1<O>11        -0.0116
      5 C3          3.4730   -1.7210    4.1170 C.3       1<O>11        -0.0299
      6 C4          2.1020   -2.1890    4.5750 C.3       1<O>11         0.0242
      7 N1          2.0830   -2.2830    6.0120 N.ar      1<O>11        -0.3398
      8 C5          1.3650   -3.2740    6.9220 C.ar      1<O>11         0.0501
      9 C6          2.0310   -3.0760    8.2900 C.ar      1<O>11         0.0076
     10 C7          2.1530   -1.5710    8.3160 C.ar      1<O>11         0.0076
     11 C8          2.8290   -1.3460    6.9560 C.ar      1<O>11         0.0501
     12 C9          2.8670    0.1360    6.6230 C.ar      1<O>11        -0.0376
     13 C10         3.6380    0.8760    7.7310 C.ar      1<O>11        -0.0598
     14 C11         3.1140    0.5710    9.1420 C.ar      1<O>11        -0.0611
     15 C12         2.9790   -0.9320    9.4180 C.ar      1<O>11        -0.0520
     16 C13         1.2170   -3.7830    9.3580 C.ar      1<O>11        -0.0520
     17 C14         1.1780   -5.2830    9.0290 C.ar      1<O>11        -0.0611
     18 C15         0.7430   -5.5840    7.5850 C.ar      1<O>11        -0.0598
     19 C16         1.4760   -4.7380    6.5290 C.ar      1<O>11        -0.0376
     20 H1          4.1220   -3.7700    3.7400 H         1<O>11         0.0325
     21 H2          4.5820   -3.0860    5.4080 H         1<O>11         0.0325
     22 H3          3.7930   -0.8190    4.7360 H         1<O>11         0.0286
     23 H4          3.4260   -1.4290    3.0160 H         1<O>11         0.0286
     24 H5          1.3110   -1.4430    4.2320 H         1<O>11         0.0492
     25 H6          1.8790   -3.2120    4.1240 H         1<O>11         0.0492
     26 H7          2.4170    0.6050    5.7340 H         1<O>11         0.0638
     27 H8          4.4810    1.5560    7.5310 H         1<O>11         0.0618
     28 H9          2.8620    1.3500    9.8790 H         1<O>11         0.0618
     29 H10         3.4120   -1.4630   10.2800 H         1<O>11         0.0624
     30 H11         0.7340   -3.3010   10.2230 H         1<O>11         0.0624
     31 H12         1.4370   -6.0680    9.7580 H         1<O>11         0.0618
     32 H13        -0.0220   -6.3350    7.3300 H         1<O>11         0.0618
     33 H14         1.9930   -5.1270    5.6380 H         1<O>11         0.0638
@<TRIPOS>BOND
     1    1    2 ar
     2    1    3 ar
     3    1    4 1
     4    4    5 1
     5    5    6 1
     6    6    7 1
     7    7    8 ar
     8    8    9 ar
     9    9   10 ar
    10   10   11 ar
    11    7   11 ar
    12   11   12 ar
    13   12   13 ar
    14   13   14 ar
    15   14   15 ar
    16   10   15 ar
    17    9   16 ar
    18   16   17 ar
    19   17   18 ar
    20   18   19 ar
    21    8   19 ar
    22    4   20 1
    23    4   21 1
    24    5   22 1
    25    5   23 1
    26    6   24 1
    27    6   25 1
    28   12   26 1
    29   13   27 1
    30   14   28 1
    31   15   29 1
    32   16   30 1
    33   17   31 1
    34   18   32 1
    35   19   33 1
@<TRIPOS>MOLECULE
1tow_1_7
 33 35 0 0 0
SMALL
GASTEIGER
Energy = 16.999374
VDW energy = 23.01
@<TRIPOS>ATOM
      1 C1          5.8140   -2.4150    3.7550 C.2       1<O>11         0.0418
      2 O1          6.6660   -3.2520    3.4970 O.co2     1<O>11        -0.5498
      3 O2          6.0710   -1.1010    3.5490 O.co2     1<O>11        -0.5498
      4 C2          4.4800   -2.8440    4.2990 C.3       1<O>11        -0.0116
      5 C3          3.6280   -1.6170    4.5780 C.3       1<O>11        -0.0299
      6 C4          2.5370   -1.9730    5.5740 C.3       1<O>11         0.0242
      7 N1          1.6220   -2.9080    4.9700 N.ar      1<O>11        -0.3398
      8 C5          0.1700   -2.7220    4.5430 C.ar      1<O>11         0.0501
      9 C6         -0.1160   -3.9370    3.6510 C.ar      1<O>11         0.0076
     10 C7          0.5880   -5.0190    4.4360 C.ar      1<O>11         0.0076
     11 C8          1.9580   -4.3530    4.6190 C.ar      1<O>11         0.0501
     12 C9          2.8100   -5.1530    5.5900 C.ar      1<O>11        -0.0376
     13 C10         2.9810   -6.5810    5.0420 C.ar      1<O>11        -0.0598
     14 C11         1.6500   -7.2570    4.6830 C.ar      1<O>11        -0.0611
     15 C12         0.7570   -6.3850    3.7920 C.ar      1<O>11        -0.0520
     16 C13        -1.6080   -4.0410    3.3980 C.ar      1<O>11        -0.0520
     17 C14        -2.0710   -2.7670    2.6760 C.ar      1<O>11        -0.0611
     18 C15        -1.6270   -1.4710    3.3740 C.ar      1<O>11        -0.0598
     19 C16        -0.1380   -1.4560    3.7630 C.ar      1<O>11        -0.0376
     20 H1          3.9540   -3.5070    3.5350 H         1<O>11         0.0325
     21 H2          4.6340   -3.4270    5.2660 H         1<O>11         0.0325
     22 H3          4.2820   -0.7900    5.0100 H         1<O>11         0.0286
     23 H4          3.1520   -1.2570    3.6060 H         1<O>11         0.0286
     24 H5          3.0070   -2.4450    6.5000 H         1<O>11         0.0492
     25 H6          1.9730   -1.0280    5.8740 H         1<O>11         0.0492
     26 H7          3.2360   -4.7730    6.5320 H         1<O>11         0.0638
     27 H8          3.9610   -7.0690    4.9200 H         1<O>11         0.0618
     28 H9          1.3660   -8.2630    5.0300 H         1<O>11         0.0618
     29 H10         0.3090   -6.6990    2.8360 H         1<O>11         0.0624
     30 H11        -2.2520   -4.8880    3.6840 H         1<O>11         0.0624
     31 H12        -2.6640   -2.7810    1.7480 H         1<O>11         0.0618
     32 H13        -2.3110   -0.6310    3.5770 H         1<O>11         0.0618
     33 H14         0.5840   -0.6610    3.5160 H         1<O>11         0.0638
@<TRIPOS>BOND
     1    1    2 ar
     2    1    3 ar
     3    1    4 1
     4    4    5 1
     5    5    6 1
     6    6    7 1
     7    7    8 ar
     8    8    9 ar
     9    9   10 ar
    10   10   11 ar
    11    7   11 ar
    12   11   12 ar
    13   12   13 ar
    14   13   14 ar
    15   14   15 ar
    16   10   15 ar
    17    9   16 ar
    18   16   17 ar
    19   17   18 ar
    20   18   19 ar
    21    8   19 ar
    22    4   20 1
    23    4   21 1
    24    5   22 1
    25    5   23 1
    26    6   24 1
    27    6   25 1
    28   12   26 1
    29   13   27 1
    30   14   28 1
    31   15   29 1
    32   16   30 1
    33   17   31 1
    34   18   32 1
    35   19   33 1
@<TRIPOS>MOLECULE
1tow_1_8
 33 35 0 0 0
SMALL
GASTEIGER
Energy = 21.679249
VDW energy = 24.96
@<TRIPOS>ATOM
      1 C1          5.8140   -2.4150    3.7550 C.2       1<O>11         0.0418
      2 O1          6.6660   -3.2520    3.4970 O.co2     1<O>11        -0.5498
      3 O2          6.0710   -1.1010    3.5490 O.co2     1<O>11        -0.5498
      4 C2          4.4800   -2.8440    4.2990 C.3       1<O>11        -0.0116
      5 C3          4.5220   -2.8250    5.8180 C.3       1<O>11        -0.0299
      6 C4          3.1590   -3.2100    6.3680 C.3       1<O>11         0.0242
      7 N1          2.1410   -2.8750    5.4050 N.ar      1<O>11        -0.3398
      8 C5          1.3150   -1.6020    5.2520 C.ar      1<O>11         0.0501
      9 C6          0.6980   -1.7220    3.8530 C.ar      1<O>11         0.0076
     10 C7          0.3280   -3.1870    3.8450 C.ar      1<O>11         0.0076
     11 C8          1.6690   -3.7920    4.2820 C.ar      1<O>11         0.0501
     12 C9          1.5100   -5.2740    4.5760 C.ar      1<O>11        -0.0376
     13 C10         0.9920   -5.9810    3.3120 C.ar      1<O>11        -0.0598
     14 C11        -0.2660   -5.3270    2.7230 C.ar      1<O>11        -0.0611
     15 C12        -0.1220   -3.8110    2.5360 C.ar      1<O>11        -0.0520
     16 C13        -0.3840   -0.6720    3.6830 C.ar      1<O>11        -0.0520
     17 C14         0.2560    0.7170    3.8340 C.ar      1<O>11        -0.0611
     18 C15         1.1030    0.8670    5.1090 C.ar      1<O>11        -0.0598
     19 C16         2.0850   -0.2950    5.3400 C.ar      1<O>11        -0.0376
     20 H1          3.6720   -2.1280    3.9320 H         1<O>11         0.0325
     21 H2          4.2450   -3.9000    3.9390 H         1<O>11         0.0325
     22 H3          5.3040   -3.5690    6.1850 H         1<O>11         0.0286
     23 H4          4.7940   -1.7780    6.1760 H         1<O>11         0.0286
     24 H5          3.1340   -4.3310    6.5730 H         1<O>11         0.0492
     25 H6          2.9660   -2.6420    7.3380 H         1<O>11         0.0492
     26 H7          1.7290   -5.7620    5.5390 H         1<O>11         0.0638
     27 H8          1.4770   -6.8670    2.8720 H         1<O>11         0.0618
     28 H9         -1.1780   -5.8880    2.4620 H         1<O>11         0.0618
     29 H10        -0.3150   -3.2630    1.6010 H         1<O>11         0.0624
     30 H11        -1.4490   -0.8720    3.4860 H         1<O>11         0.0624
     31 H12         0.1210    1.5270    3.1000 H         1<O>11         0.0618
     32 H13         1.0150    1.7260    5.7930 H         1<O>11         0.0618
     33 H14         3.1640   -0.1960    5.5360 H         1<O>11         0.0638
@<TRIPOS>BOND
     1    1    2 ar
     2    1    3 ar
     3    1    4 1
     4    4    5 1
     5    5    6 1
     6    6    7 1
     7    7    8 ar
     8    8    9 ar
     9    9   10 ar
    10   10   11 ar
    11    7   11 ar
    12   11   12 ar
    13   12   13 ar
    14   13   14 ar
    15   14   15 ar
    16   10   15 ar
    17    9   16 ar
    18   16   17 ar
    19   17   18 ar
    20   18   19 ar
    21    8   19 ar
    22    4   20 1
    23    4   21 1
    24    5   22 1
    25    5   23 1
    26    6   24 1
    27    6   25 1
    28   12   26 1
    29   13   27 1
    30   14   28 1
    31   15   29 1
    32   16   30 1
    33   17   31 1
    34   18   32 1
    35   19   33 1
@<TRIPOS>MOLECULE
1tow_1_9
 33 35 0 0 0
SMALL
GASTEIGER
Energy = 151.863220
VDW energy = 28.74
@<TRIPOS>ATOM
      1 C1          5.8140   -2.4150    3.7550 C.2       1<O>11         0.0418
      2 O1          6.6660   -3.2520    3.4970 O.co2     1<O>11        -0.5498
      3 O2          6.0710   -1.1010    3.5490 O.co2     1<O>11        -0.5498
      4 C2          4.4800   -2.8440    4.2990 C.3       1<O>11        -0.0116
      5 C3          4.4500   -4.3570    4.4340 C.3       1<O>11        -0.0299
      6 C4          3.1020   -4.7910    4.9850 C.3       1<O>11         0.0242
      7 N1          3.0760   -6.2260    5.1120 N.ar      1<O>11        -0.3398
      8 C5          3.1280   -7.3070    4.0380 C.ar      1<O>11         0.0501
      9 C6          3.4360   -8.5930    4.8160 C.ar      1<O>11         0.0076
     10 C7          2.5500   -8.3960    6.0230 C.ar      1<O>11         0.0076
     11 C8          2.9860   -6.9820    6.4320 C.ar      1<O>11         0.0501
     12 C9          2.0700   -6.4390    7.5160 C.ar      1<O>11        -0.0376
     13 C10         2.1190   -7.3840    8.7290 C.ar      1<O>11        -0.0598
     14 C11         1.8480   -8.8520    8.3670 C.ar      1<O>11        -0.0611
     15 C12         2.7060   -9.3470    7.1970 C.ar      1<O>11        -0.0520
     16 C13         3.2220   -9.7950    3.9140 C.ar      1<O>11        -0.0520
     17 C14         4.1830   -9.6870    2.7210 C.ar      1<O>11        -0.0611
     18 C15         4.1210   -8.3280    2.0040 C.ar      1<O>11        -0.0598
     19 C16         4.1820   -7.1220    2.9580 C.ar      1<O>11        -0.0376
     20 H1          4.3160   -2.3680    5.3220 H         1<O>11         0.0325
     21 H2          3.6540   -2.5100    3.5870 H         1<O>11         0.0325
     22 H3          4.6130   -4.8330    3.4110 H         1<O>11         0.0286
     23 H4          5.2760   -4.6910    5.1450 H         1<O>11         0.0286
     24 H5          2.9380   -4.3160    6.0080 H         1<O>11         0.0492
     25 H6          2.2750   -4.4570    4.2750 H         1<O>11         0.0492
     26 H7          1.4690   -5.5190    7.4450 H         1<O>11         0.0638
     27 H8          2.3270   -7.0420    9.7560 H         1<O>11         0.0618
     28 H9          1.1140   -9.4830    8.8930 H         1<O>11         0.0618
     29 H10         3.3360  -10.2510    7.2060 H         1<O>11         0.0624
     30 H11         2.5000  -10.6080    4.0870 H         1<O>11         0.0624
     31 H12         4.8520  -10.5050    2.4090 H         1<O>11         0.0618
     32 H13         4.0410   -8.2270    0.9100 H         1<O>11         0.0618
     33 H14         4.8720   -6.2680    2.8730 H         1<O>11         0.0638
@<TRIPOS>BOND
     1    1    2 ar
     2    1    3 ar
     3    1    4 1
     4    4    5 1
     5    5    6 1
     6    6    7 1
     7    7    8 ar
     8    8    9 ar
     9    9   10 ar
    10   10   11 ar
    11    7   11 ar
    12   11   12 ar
    13   12   13 ar
    14   13   14 ar
    15   14   15 ar
    16   10   15 ar
    17    9   16 ar
    18   16   17 ar
    19   17   18 ar
    20   18   19 ar
    21    8   19 ar
    22    4   20 1
    23    4   21 1
    24    5   22 1
    25    5   23 1
    26    6   24 1
    27    6   25 1
    28   12   26 1
    29   13   27 1
    30   14   28 1
    31   15   29 1
    32   16   30 1
    33   17   31 1
    34   18   32 1
    35   19   33 1
@<TRIPOS>MOLECULE
1tow_1_10
 33 35 0 0 0
SMALL
GASTEIGER
Energy = 144.958237
VDW energy = 35.25
@<TRIPOS>ATOM
      1 C1          5.8140   -2.4150    3.7550 C.2       1<O>11         0.0418
      2 O1          6.6660   -3.2520    3.4970 O.co2     1<O>11        -0.5498
      3 O2          6.0710   -1.1010    3.5490 O.co2     1<O>11        -0.5498
      4 C2          4.4800   -2.8440    4.2990 C.3       1<O>11        -0.0116
      5 C3          3.4730   -1.7210    4.1170 C.3       1<O>11        -0.0299
      6 C4          2.1020   -2.1890    4.5750 C.3       1<O>11         0.0242
      7 N1          2.0830   -2.2830    6.0120 N.ar      1<O>11        -0.3398
      8 C5          3.1530   -1.9090    7.0340 C.ar      1<O>11         0.0501
      9 C6          2.4020   -1.8930    8.3720 C.ar      1<O>11         0.0076
     10 C7          1.5310   -3.1160    8.2070 C.ar      1<O>11         0.0076
     11 C8          0.9130   -2.8070    6.8370 C.ar      1<O>11         0.0501
     12 C9          0.1460   -4.0110    6.3190 C.ar      1<O>11        -0.0376
     13 C10        -0.9560   -4.3730    7.3310 C.ar      1<O>11        -0.0598
     14 C11        -0.4310   -4.5420    8.7640 C.ar      1<O>11        -0.0611
     15 C12         0.4340   -3.3630    9.2280 C.ar      1<O>11        -0.0520
     16 C13         3.4010   -1.8290    9.5120 C.ar      1<O>11        -0.0520
     17 C14         4.2160   -0.5340    9.3770 C.ar      1<O>11        -0.0611
     18 C15         4.8250   -0.3360    7.9780 C.ar      1<O>11        -0.0598
     19 C16         3.8250   -0.5620    6.8300 C.ar      1<O>11        -0.0376
     20 H1          4.1220   -3.7700    3.7400 H         1<O>11         0.0325
     21 H2          4.5820   -3.0860    5.4080 H         1<O>11         0.0325
     22 H3          3.7930   -0.8190    4.7360 H         1<O>11         0.0286
     23 H4          3.4260   -1.4290    3.0160 H         1<O>11         0.0286
     24 H5          1.3110   -1.4430    4.2320 H         1<O>11         0.0492
     25 H6          1.8790   -3.2120    4.1240 H         1<O>11         0.0492
     26 H7          0.3450   -4.5400    5.3730 H         1<O>11         0.0638
     27 H8         -2.0140   -4.4990    7.0550 H         1<O>11         0.0618
     28 H9         -0.6530   -5.4190    9.3940 H         1<O>11         0.0618
     29 H10         0.2830   -2.7870   10.1540 H         1<O>11         0.0624
     30 H11         3.5220   -2.5850   10.3050 H         1<O>11         0.0624
     31 H12         4.3510    0.1840   10.2020 H         1<O>11         0.0618
     32 H13         5.8780   -0.0580    7.8140 H         1<O>11         0.0618
     33 H14         3.6290    0.1360    6.0010 H         1<O>11         0.0638
@<TRIPOS>BOND
     1    1    2 ar
     2    1    3 ar
     3    1    4 1
     4    4    5 1
     5    5    6 1
     6    6    7 1
     7    7    8 ar
     8    8    9 ar
     9    9   10 ar
    10   10   11 ar
    11    7   11 ar
    12   11   12 ar
    13   12   13 ar
    14   13   14 ar
    15   14   15 ar
    16   10   15 ar
    17    9   16 ar
    18   16   17 ar
    19   17   18 ar
    20   18   19 ar
    21    8   19 ar
    22    4   20 1
    23    4   21 1
    24    5   22 1
    25    5   23 1
    26    6   24 1
    27    6   25 1
    28   12   26 1
    29   13   27 1
    30   14   28 1
    31   15   29 1
    32   16   30 1
    33   17   31 1
    34   18   32 1
    35   19   33 1
