@<TRIPOS>MOLECULE
4103036
 35 36 0 0 0
SMALL
GASTEIGER
Energy = 0

@<TRIPOS>ATOM
      1 C1         -0.7094    1.4492    2.8928 C.ar      1 <1>         0.0386
      2 N1          1.0500    0.6946    1.1653 N.4       1 <1>         0.2460
      3 C2          0.7327    1.0640    2.6024 C.3       1 <1>        -0.0020
      4 N2          2.6919    2.7776   -0.2440 N.4       1 <1>         0.2345
      5 C3         -1.7826    0.6224    2.4853 C.ar      1 <1>         0.1283
      6 O1         -1.5121   -0.5838    1.7834 O.3       1 <1>        -0.4946
      7 C4          0.4767    1.6191    0.1156 C.3       1 <1>         0.0097
      8 C5          2.5354    0.5295    0.9401 C.3       1 <1>         0.0097
      9 C6         -0.9957    2.6799    3.5243 C.ar      1 <1>        -0.0500
     10 C7          3.3097    1.8635    0.7707 C.3       1 <1>         0.0077
     11 C8          1.2265    2.9654    0.0021 C.3       1 <1>         0.0077
     12 C9         -3.1104    1.0583    2.6525 C.ar      1 <1>        -0.0195
     13 C10        -1.8130   -1.7285    2.6310 C.3       1 <1>         0.0788
     14 C11        -2.3229    3.0857    3.7263 C.ar      1 <1>        -0.0611
     15 C12        -3.3792    2.2797    3.2839 C.ar      1 <1>        -0.0583
     16 H1          0.6274   -0.2797    0.9910 H         1 <1>         0.2041
     17 H2          0.9609    0.1925    3.2632 H         1 <1>         0.0868
     18 H3          1.4013    1.8879    2.9428 H         1 <1>         0.0868
     19 H4          2.8511    2.3892   -1.2343 H         1 <1>         0.2018
     20 H5          3.1837    3.7342   -0.2098 H         1 <1>         0.2018
     21 H6          0.5143    1.1090   -0.8791 H         1 <1>         0.0868
     22 H7         -0.6067    1.8201    0.2959 H         1 <1>         0.0868
     23 H8          2.9946   -0.0520    1.7786 H         1 <1>         0.0868
     24 H9          2.6999   -0.0849    0.0194 H         1 <1>         0.0868
     25 H10        -0.1953    3.3358    3.8640 H         1 <1>         0.0623
     26 H11         4.3610    1.6305    0.4671 H         1 <1>         0.0867
     27 H12         3.3779    2.3875    1.7553 H         1 <1>         0.0867
     28 H13         0.7800    3.5566   -0.8361 H         1 <1>         0.0867
     29 H14         1.0668    3.5590    0.9359 H         1 <1>         0.0867
     30 H15        -3.9352    0.4442    2.2946 H         1 <1>         0.0654
     31 H16        -1.2623   -1.6815    3.6004 H         1 <1>         0.0660
     32 H17        -1.5049   -2.6593    2.1031 H         1 <1>         0.0660
     33 H18        -2.9084   -1.8028    2.8300 H         1 <1>         0.0660
     34 H19        -2.5358    4.0331    4.2205 H         1 <1>         0.0618
     35 H20        -4.4095    2.6035    3.4284 H         1 <1>         0.0619
@<TRIPOS>BOND
     1    3    1 1
     2    5    1 ar
     3    9    1 ar
     4    2    3 1
     5    7    2 1
     6    8    2 1
     7    2   16 1
     8    3   17 1
     9    3   18 1
    10    4   10 1
    11    4   11 1
    12    4   19 1
    13    4   20 1
    14    6    5 1
    15   12    5 ar
    16   13    6 1
    17   11    7 1
    18    7   21 1
    19    7   22 1
    20   10    8 1
    21    8   23 1
    22    8   24 1
    23   14    9 ar
    24    9   25 1
    25   10   26 1
    26   10   27 1
    27   11   28 1
    28   11   29 1
    29   15   12 ar
    30   12   30 1
    31   13   31 1
    32   13   32 1
    33   13   33 1
    34   15   14 ar
    35   14   34 1
    36   15   35 1
