@<TRIPOS>MOLECULE
4103036
 35 36 0 0 0
SMALL
GASTEIGER
Energy = 0

@<TRIPOS>ATOM
      1 C1          0.3659    1.9047   -2.1499 C.ar      1 <1>         0.0386
      2 N1         -0.0366    0.3819   -0.5931 N.4       1 <1>         0.2460
      3 C2          0.4732    1.6442   -0.8345 C.3       1 <1>        -0.0020
      4 N2         -0.5051   -0.1262   -1.8007 N.4       1 <1>         0.2345
      5 C3         -0.1525    0.8199   -2.7721 C.ar      1 <1>         0.1283
      6 O1          1.0018    2.4343    0.1979 O.3       1 <1>        -0.4946
      7 C4          1.0122    1.9031    1.5020 C.3       1 <1>         0.0097
      8 C5         -0.0252   -0.1675    0.6982 C.3       1 <1>         0.0097
      9 C6          0.5039    0.6086    1.7485 C.ar      1 <1>        -0.0500
     10 C7          1.4901    3.6840   -0.0480 C.3       1 <1>         0.0077
     11 C8          0.5082    0.1033    3.0136 C.3       1 <1>         0.0077
     12 C9         -1.0411   -1.5130   -2.0484 C.ar      1 <1>        -0.0195
     13 C10        -0.4908    0.7820   -4.2322 C.3       1 <1>         0.0788
     14 C11        -3.2408   -1.0442   -0.8675 C.ar      1 <1>        -0.0611
     15 C12        -2.5775   -1.5536   -2.0999 C.ar      1 <1>        -0.0583
     16 H1          0.6635    2.7996   -2.6170 H         1 <1>         0.2041
     17 H2          1.4176    2.4919    2.3224 H         1 <1>         0.0868
     18 H3         -0.4089   -1.1645    0.9001 H         1 <1>         0.0868
     19 H4         -0.6421   -1.8851   -3.0212 H         1 <1>         0.2018
     20 H5         -0.6717   -2.2110   -1.2624 H         1 <1>         0.2018
     21 H6         -1.4235    0.2064   -4.4151 H         1 <1>         0.0868
     22 H7         -0.6351    1.8169   -4.6168 H         1 <1>         0.0868
     23 H8          0.3468    0.3053   -4.7882 H         1 <1>         0.0868
     24 H9         -4.2995   -1.1901   -0.9361 H         1 <1>         0.0868
     25 H10        -2.8876   -1.5630   -0.0003 H         1 <1>         0.0623
     26 H11        -3.0604    0.0040   -0.7419 H         1 <1>         0.0867
     27 H12        -2.9320   -0.9645   -2.9794 H         1 <1>         0.0867
     28 H13        -2.8848   -2.6139   -2.2713 H         1 <1>         0.0867
     29 H14         0.0000    0.0000    0.0000 H         1 <1>         0.0867
     30 H15         0.0000    0.0000    0.0000 H         1 <1>         0.0654
     31 H16         0.0000    0.0000    0.0000 H         1 <1>         0.0660
     32 H17         0.0000    0.0000    0.0000 H         1 <1>         0.0660
     33 H18         0.0000    0.0000    0.0000 H         1 <1>         0.0660
     34 H19         0.0000    0.0000    0.0000 H         1 <1>         0.0618
     35 H20         0.0000    0.0000    0.0000 H         1 <1>         0.0619
@<TRIPOS>BOND
     1    3    1 1
     2    5    1 ar
     3    9    1 ar
     4    2    3 1
     5    7    2 1
     6    8    2 1
     7    2   16 1
     8    3   17 1
     9    3   18 1
    10    4   10 1
    11    4   11 1
    12    4   19 1
    13    4   20 1
    14    6    5 1
    15   12    5 ar
    16   13    6 1
    17   11    7 1
    18    7   21 1
    19    7   22 1
    20   10    8 1
    21    8   23 1
    22    8   24 1
    23   14    9 ar
    24    9   25 1
    25   10   26 1
    26   10   27 1
    27   11   28 1
    28   11   29 1
    29   15   12 ar
    30   12   30 1
    31   13   31 1
    32   13   32 1
    33   13   33 1
    34   15   14 ar
    35   14   34 1
    36   15   35 1
