

@<TRIPOS>MOLECULE
1$ERinh1_1_ERRpdb_raloxifen
 61 65 1 0 0
SMALL
USER_CHARGES

mmff94s_NoEstat = 78.58
@<TRIPOS>ATOM
      1 C1         28.9662   -2.4289   26.3126 C.ar    1  <1>        -0.0494
      2 C2         27.5802   -2.2529   26.2974 C.ar    1  <1>        -0.0195
      3 C3         27.0216   -1.0538   26.7165 C.ar    1  <1>         0.1180
      4 O1         25.6687   -0.8932   26.6962 O.3     1  <1>        -0.5067
      5 C4         27.8330   -0.0070   27.1583 C.ar    1  <1>        -0.0058
      6 C5         29.2301   -0.1880   27.1725 C.ar    1  <1>         0.0241
      7 S1         30.4219    0.9534   27.6728 S.3     1  <1>        -0.0874
      8 C6         31.7000   -0.1251   27.3430 C.2     1  <1>         0.0313
      9 C7         33.0527    0.3212   27.5917 C.ar    1  <1>        -0.0104
     10 C8         33.6213    0.1438   28.8509 C.ar    1  <1>        -0.0501
     11 C9         34.9267    0.5735   29.0905 C.ar    1  <1>        -0.0196
     12 C10        35.6601    1.1792   28.0701 C.ar    1  <1>         0.1169
     13 O2         36.9339    1.5986   28.3039 O.3     1  <1>        -0.5068
     14 C11        35.0881    1.3555   26.8103 C.ar    1  <1>        -0.0196
     15 C12        33.7826    0.9258   26.5708 C.ar    1  <1>        -0.0501
     16 C13        29.8162   -1.3867   26.7554 C.ar    1  <1>         0.0008
     17 C14        31.2257   -1.3050   26.8695 C.2     1  <1>         0.0447
     18 C15        32.1410   -2.4075   26.5087 C.2     1  <1>         0.1948
     19 O3         32.7140   -3.0620   27.3930 O.2     1  <1>        -0.2866
     20 C16        32.3781   -2.7570   25.1173 C.ar    1  <1>         0.0225
     21 C17        31.6470   -2.1321   24.1068 C.ar    1  <1>        -0.0475
     22 C18        31.8744   -2.4673   22.7721 C.ar    1  <1>        -0.0193
     23 C19        32.8313   -3.4252   22.4564 C.ar    1  <1>         0.1206
     24 C20        33.5637   -4.0523   23.4578 C.ar    1  <1>        -0.0193
     25 C21        33.3363   -3.7171   24.7926 C.ar    1  <1>        -0.0475
     26 O4         33.0537   -3.7552   21.1452 O.3     1  <1>        -0.4907
     27 C22        33.6633   -2.7637   20.3290 C.3     1  <1>         0.1022
     28 C23        34.0772   -3.4015   19.0124 C.3     1  <1>         0.0331
     29 N1         34.8391   -2.4555   18.1973 N.3     1  <1>        -0.2991
     30 C24        36.0599   -2.0378   18.9011 C.3     1  <1>        -0.0010
     31 C25        36.8439   -1.0105   18.0832 C.3     1  <1>        -0.0402
     32 C26        37.1722   -1.5423   16.6927 C.3     1  <1>        -0.0507
     33 C27        35.9099   -2.0488   16.0044 C.3     1  <1>        -0.0402
     34 C28        35.1554   -3.0434   16.8882 C.3     1  <1>        -0.0010
     35 H1         29.3846   -3.3761   25.9810 H       1  <1>         0.0625
     36 H2         26.9433   -3.0642   25.9544 H       1  <1>         0.0654
     37 H3         25.4542   -0.0001   27.0209 H       1  <1>         0.2921
     38 H4         27.3921    0.9310   27.4849 H       1  <1>         0.0665
     39 H5         33.0629   -0.3262   29.6568 H       1  <1>         0.0625
     40 H6         35.3668    0.4328   30.0741 H       1  <1>         0.0654
     41 H7         37.1546    1.4286   29.2378 H       1  <1>         0.2921
     42 H8         35.6539    1.8263   26.0110 H       1  <1>         0.0654
     43 H9         33.3509    1.0689   25.5830 H       1  <1>         0.0625
     44 H10        30.8978   -1.3825   24.3482 H       1  <1>         0.0626
     45 H11        31.3014   -1.9774   21.9895 H       1  <1>         0.0654
     46 H12        34.3114   -4.8012   23.2114 H       1  <1>         0.0654
     47 H13        33.9116   -4.2105   25.5718 H       1  <1>         0.0626
     48 H14        32.9407   -1.9570   20.1663 H       1  <1>         0.0709
     49 H15        34.5306   -2.3614   20.8631 H       1  <1>         0.0709
     50 H16        34.6750   -4.3000   19.2033 H       1  <1>         0.0460
     51 H17        33.1885   -3.7315   18.4629 H       1  <1>         0.0460
     52 H18        35.7916   -1.5822   19.8619 H       1  <1>         0.0427
     53 H19        36.6987   -2.9040   19.1183 H       1  <1>         0.0427
     54 H20        36.2578   -0.0871   17.9932 H       1  <1>         0.0278
     55 H21        37.7706   -0.7502   18.6069 H       1  <1>         0.0278
     56 H22        37.6401   -0.7562   16.0898 H       1  <1>         0.0266
     57 H23        37.8980   -2.3605   16.7750 H       1  <1>         0.0266
     58 H24        35.2564   -1.1989   15.7694 H       1  <1>         0.0278
     59 H25        36.1722   -2.5235   15.0521 H       1  <1>         0.0278
     60 H26        35.7513   -3.9578   17.0074 H       1  <1>         0.0427
     61 H27        34.2261   -3.3237   16.3774 H       1  <1>         0.0427
@<TRIPOS>BOND
     1     1     2   ar
     2     1    16   ar
     3     1    35    1
     4     2     3   ar
     5     2    36    1
     6     3     4    1
     7     3     5   ar
     8     4    37    1
     9     5     6   ar
    10     5    38    1
    11     6     7    1
    12     6    16   ar
    13     7     8    1
    14     8     9    1
    15     8    17    2
    16     9    10   ar
    17     9    15   ar
    18    10    11   ar
    19    10    39    1
    20    11    12   ar
    21    11    40    1
    22    12    13    1
    23    12    14   ar
    24    13    41    1
    25    14    15   ar
    26    14    42    1
    27    15    43    1
    28    16    17    1
    29    17    18    1
    30    18    19    2
    31    18    20    1
    32    20    21   ar
    33    20    25   ar
    34    21    22   ar
    35    21    44    1
    36    22    23   ar
    37    22    45    1
    38    23    24   ar
    39    23    26    1
    40    24    25   ar
    41    24    46    1
    42    25    47    1
    43    26    27    1
    44    27    28    1
    45    27    48    1
    46    27    49    1
    47    28    29    1
    48    28    50    1
    49    28    51    1
    50    29    30    1
    51    29    34    1
    52    30    31    1
    53    30    52    1
    54    30    53    1
    55    31    32    1
    56    31    54    1
    57    31    55    1
    58    32    33    1
    59    32    56    1
    60    32    57    1
    61    33    34    1
    62    33    58    1
    63    33    59    1
    64    34    60    1
    65    34    61    1
@<TRIPOS>SUBSTRUCTURE
     1 <1>         1 TEMP              0 ****  ****    0 ROOT



@<TRIPOS>MOLECULE
2$ER_1_ERRpdb_raloxifen
 61 65 1 0 0
SMALL
USER_CHARGES

mmff94s_NoEstat = 78.58
@<TRIPOS>ATOM
      1 C1         28.9702   -2.8560   26.6219 C.ar    1  <1>        -0.0494
      2 C2         27.5765   -2.7662   26.6635 C.ar    1  <1>        -0.0195
      3 C3         26.9624   -1.6062   27.1140 C.ar    1  <1>         0.1180
      4 O1         25.6025   -1.5297   27.1492 O.3     1  <1>        -0.5067
      5 C4         27.7249   -0.5136   27.5313 C.ar    1  <1>        -0.0058
      6 C5         29.1299   -0.6077   27.4881 C.ar    1  <1>         0.0241
      7 S1         30.2683    0.6026   27.9493 S.3     1  <1>        -0.0874
      8 C6         31.5961   -0.3929   27.5601 C.2     1  <1>         0.0313
      9 C7         32.9277    0.1351   27.7580 C.ar    1  <1>        -0.0104
     10 C8         33.5999   -0.1083   28.9535 C.ar    1  <1>        -0.0501
     11 C9         34.8849    0.4002   29.1440 C.ar    1  <1>        -0.0196
     12 C10        35.4943    1.1505   28.1382 C.ar    1  <1>         0.1169
     13 O2         36.7483    1.6468   28.3240 O.3     1  <1>        -0.5068
     14 C11        34.8188    1.3926   26.9422 C.ar    1  <1>        -0.0196
     15 C12        33.5337    0.8840   26.7519 C.ar    1  <1>        -0.0501
     16 C13        29.7715   -1.7656   27.0385 C.ar    1  <1>         0.0008
     17 C14        31.1767   -1.5973   27.0967 C.2     1  <1>         0.0447
     18 C15        32.1430   -2.6390   26.6909 C.2     1  <1>         0.1948
     19 O3         32.7738   -3.2774   27.5472 O.2     1  <1>        -0.2866
     20 C16        32.3642   -2.9472   25.2871 C.ar    1  <1>         0.0225
     21 C17        31.5325   -2.3954   24.3124 C.ar    1  <1>        -0.0475
     22 C18        31.7446   -2.6910   22.9659 C.ar    1  <1>        -0.0193
     23 C19        32.7870   -3.5363   22.6027 C.ar    1  <1>         0.1206
     24 C20        33.6198   -4.0899   23.5682 C.ar    1  <1>        -0.0193
     25 C21        33.4077   -3.7944   24.9148 C.ar    1  <1>        -0.0475
     26 O4         32.9945   -3.8274   21.2799 O.3     1  <1>        -0.4907
     27 C22        32.9249   -2.7410   20.3657 C.3     1  <1>         0.1022
     28 C23        32.9029   -3.2945   18.9498 C.3     1  <1>         0.0331
     29 N1         34.1112   -4.0739   18.6812 N.3     1  <1>        -0.2991
     30 C24        34.0845   -4.6077   17.3120 C.3     1  <1>        -0.0010
     31 C25        35.3182   -5.4666   17.0307 C.3     1  <1>        -0.0402
     32 C26        36.6048   -4.6898   17.2870 C.3     1  <1>        -0.0507
     33 C27        36.5853   -4.0717   18.6803 C.3     1  <1>        -0.0402
     34 C28        35.3112   -3.2570   18.9094 C.3     1  <1>        -0.0010
     35 H1         29.4325   -3.7737   26.2663 H       1  <1>         0.0625
     36 H2         26.9776   -3.6135   26.3399 H       1  <1>         0.0654
     37 H3         25.2327   -2.3242   26.7238 H       1  <1>         0.2921
     38 H4         27.2405    0.3936   27.8825 H       1  <1>         0.0665
     39 H5         33.1386   -0.6909   29.7472 H       1  <1>         0.0625
     40 H6         35.4061    0.2077   30.0779 H       1  <1>         0.0654
     41 H7         37.0123    2.1409   27.5265 H       1  <1>         0.2921
     42 H8         35.2878    1.9759   26.1546 H       1  <1>         0.0654
     43 H9         33.0204    1.0800   25.8134 H       1  <1>         0.0625
     44 H10        30.7163   -1.7340   24.5911 H       1  <1>         0.0626
     45 H11        31.0931   -2.2586   22.2114 H       1  <1>         0.0654
     46 H12        34.4343   -4.7509   23.2847 H       1  <1>         0.0654
     47 H13        34.0617   -4.2300   25.6659 H       1  <1>         0.0626
     48 H14        32.0169   -2.1668   20.5787 H       1  <1>         0.0709
     49 H15        33.7972   -2.0984   20.5253 H       1  <1>         0.0709
     50 H16        32.0132   -3.9181   18.8055 H       1  <1>         0.0460
     51 H17        32.8251   -2.4722   18.2298 H       1  <1>         0.0460
     52 H18        33.1920   -5.2313   17.1789 H       1  <1>         0.0427
     53 H19        34.0250   -3.7930   16.5786 H       1  <1>         0.0427
     54 H20        35.2972   -6.3605   17.6669 H       1  <1>         0.0278
     55 H21        35.2978   -5.8141   15.9917 H       1  <1>         0.0278
     56 H22        37.4715   -5.3515   17.1810 H       1  <1>         0.0266
     57 H23        36.7105   -3.8973   16.5360 H       1  <1>         0.0266
     58 H24        36.6514   -4.8673   19.4335 H       1  <1>         0.0278
     59 H25        37.4643   -3.4309   18.8138 H       1  <1>         0.0278
     60 H26        35.3120   -2.3769   18.2526 H       1  <1>         0.0427
     61 H27        35.3156   -2.8922   19.9438 H       1  <1>         0.0427
@<TRIPOS>BOND
     1     1     2   ar
     2     1    16   ar
     3     1    35    1
     4     2     3   ar
     5     2    36    1
     6     3     4    1
     7     3     5   ar
     8     4    37    1
     9     5     6   ar
    10     5    38    1
    11     6     7    1
    12     6    16   ar
    13     7     8    1
    14     8     9    1
    15     8    17    2
    16     9    10   ar
    17     9    15   ar
    18    10    11   ar
    19    10    39    1
    20    11    12   ar
    21    11    40    1
    22    12    13    1
    23    12    14   ar
    24    13    41    1
    25    14    15   ar
    26    14    42    1
    27    15    43    1
    28    16    17    1
    29    17    18    1
    30    18    19    2
    31    18    20    1
    32    20    21   ar
    33    20    25   ar
    34    21    22   ar
    35    21    44    1
    36    22    23   ar
    37    22    45    1
    38    23    24   ar
    39    23    26    1
    40    24    25   ar
    41    24    46    1
    42    25    47    1
    43    26    27    1
    44    27    28    1
    45    27    48    1
    46    27    49    1
    47    28    29    1
    48    28    50    1
    49    28    51    1
    50    29    30    1
    51    29    34    1
    52    30    31    1
    53    30    52    1
    54    30    53    1
    55    31    32    1
    56    31    54    1
    57    31    55    1
    58    32    33    1
    59    32    56    1
    60    32    57    1
    61    33    34    1
    62    33    58    1
    63    33    59    1
    64    34    60    1
    65    34    61    1
@<TRIPOS>SUBSTRUCTURE
     1 <1>         1 TEMP              0 ****  ****    0 ROOT



@<TRIPOS>MOLECULE
3$ERinh_1_ERRpdb_raloxifen
 61 65 1 0 0
SMALL
USER_CHARGES

mmff94s_NoEstat = 78.58
@<TRIPOS>ATOM
      1 C1         34.1263   -1.6827   26.7893 C.ar    1  <1>        -0.0494
      2 C2         35.3914   -1.2446   27.1890 C.ar    1  <1>        -0.0195
      3 C3         35.5174   -0.2047   28.0991 C.ar    1  <1>         0.1180
      4 O1         36.7563    0.2134   28.4824 O.3     1  <1>        -0.5067
      5 C4         34.3857    0.4184   28.6286 C.ar    1  <1>        -0.0058
      6 C5         33.1117   -0.0258   28.2232 C.ar    1  <1>         0.0241
      7 S1         31.5840    0.5867   28.7376 S.3     1  <1>        -0.0874
      8 C6         30.7289   -0.5173   27.7600 C.2     1  <1>         0.0313
      9 C7         29.2838   -0.4711   27.7797 C.ar    1  <1>        -0.0104
     10 C8         28.6146    0.5784   27.1544 C.ar    1  <1>        -0.0501
     11 C9         27.2204    0.6223   27.1726 C.ar    1  <1>        -0.0196
     12 C10        26.4992   -0.3835   27.8159 C.ar    1  <1>         0.1169
     13 O2         25.1386   -0.3408   27.8338 O.3     1  <1>        -0.5068
     14 C11        27.1720   -1.4332   28.4413 C.ar    1  <1>        -0.0196
     15 C12        28.5663   -1.4770   28.4230 C.ar    1  <1>        -0.0501
     16 C13        32.9592   -1.0713   27.3076 C.ar    1  <1>         0.0008
     17 C14        31.5839   -1.3171   27.0740 C.2     1  <1>         0.0447
     18 C15        31.0839   -2.3604   26.1549 C.2     1  <1>         0.1948
     19 O3         30.0436   -2.9825   26.4184 O.2     1  <1>        -0.2866
     20 C16        31.7883   -2.6694   24.9208 C.ar    1  <1>         0.0225
     21 C17        31.2843   -2.2222   23.6993 C.ar    1  <1>        -0.0475
     22 C18        31.9599   -2.5186   22.5156 C.ar    1  <1>        -0.0193
     23 C19        33.1351   -3.2600   22.5609 C.ar    1  <1>         0.1206
     24 C20        33.6434   -3.7091   23.7743 C.ar    1  <1>        -0.0193
     25 C21        32.9678   -3.4129   24.9581 C.ar    1  <1>        -0.0475
     26 O4         33.7981   -3.5521   21.3977 O.3     1  <1>        -0.4907
     27 C22        33.1467   -3.2026   20.1835 C.3     1  <1>         0.1022
     28 C23        33.8957   -3.8427   19.0255 C.3     1  <1>         0.0331
     29 N1         35.3098   -3.4697   19.0560 N.3     1  <1>        -0.2991
     30 C24        36.0368   -4.1210   17.9573 C.3     1  <1>        -0.0010
     31 C25        37.5272   -3.7805   18.0037 C.3     1  <1>        -0.0402
     32 C26        37.7524   -2.2728   17.9870 C.3     1  <1>        -0.0507
     33 C27        36.9289   -1.5991   19.0787 C.3     1  <1>        -0.0402
     34 C28        35.4574   -2.0087   18.9982 C.3     1  <1>        -0.0010
     35 H1         34.0485   -2.4985   26.0747 H       1  <1>         0.0625
     36 H2         36.2762   -1.7258   26.7803 H       1  <1>         0.0654
     37 H3         36.6695    0.7517   29.2897 H       1  <1>         0.2921
     38 H4         34.4883    1.2318   29.3419 H       1  <1>         0.0665
     39 H5         29.1622    1.3702   26.6490 H       1  <1>         0.0625
     40 H6         26.7021    1.4425   26.6831 H       1  <1>         0.0654
     41 H7         24.8437    0.4729   27.3856 H       1  <1>         0.2921
     42 H8         26.6162   -2.2200   28.9439 H       1  <1>         0.0654
     43 H9         29.0765   -2.3024   28.9138 H       1  <1>         0.0625
     44 H10        30.3660   -1.6422   23.6583 H       1  <1>         0.0626
     45 H11        31.5620   -2.1680   21.5671 H       1  <1>         0.0654
     46 H12        34.5617   -4.2890   23.8100 H       1  <1>         0.0654
     47 H13        33.3695   -3.7665   25.9043 H       1  <1>         0.0626
     48 H14        32.1126   -3.5602   20.2299 H       1  <1>         0.0709
     49 H15        33.1416   -2.1110   20.0956 H       1  <1>         0.0709
     50 H16        33.7933   -4.9329   19.0705 H       1  <1>         0.0460
     51 H17        33.4504   -3.5285   18.0750 H       1  <1>         0.0460
     52 H18        35.9286   -5.2092   18.0402 H       1  <1>         0.0427
     53 H19        35.6193   -3.8252   16.9859 H       1  <1>         0.0427
     54 H20        37.9741   -4.2075   18.9104 H       1  <1>         0.0278
     55 H21        38.0381   -4.2393   17.1498 H       1  <1>         0.0278
     56 H22        38.8159   -2.0495   18.1258 H       1  <1>         0.0266
     57 H23        37.4634   -1.8697   17.0087 H       1  <1>         0.0266
     58 H24        37.3320   -1.8737   20.0618 H       1  <1>         0.0278
     59 H25        37.0162   -0.5102   18.9899 H       1  <1>         0.0278
     60 H26        35.0127   -1.6101   18.0767 H       1  <1>         0.0427
     61 H27        34.9250   -1.5522   19.8414 H       1  <1>         0.0427
@<TRIPOS>BOND
     1     1     2   ar
     2     1    16   ar
     3     1    35    1
     4     2     3   ar
     5     2    36    1
     6     3     4    1
     7     3     5   ar
     8     4    37    1
     9     5     6   ar
    10     5    38    1
    11     6     7    1
    12     6    16   ar
    13     7     8    1
    14     8     9    1
    15     8    17    2
    16     9    10   ar
    17     9    15   ar
    18    10    11   ar
    19    10    39    1
    20    11    12   ar
    21    11    40    1
    22    12    13    1
    23    12    14   ar
    24    13    41    1
    25    14    15   ar
    26    14    42    1
    27    15    43    1
    28    16    17    1
    29    17    18    1
    30    18    19    2
    31    18    20    1
    32    20    21   ar
    33    20    25   ar
    34    21    22   ar
    35    21    44    1
    36    22    23   ar
    37    22    45    1
    38    23    24   ar
    39    23    26    1
    40    24    25   ar
    41    24    46    1
    42    25    47    1
    43    26    27    1
    44    27    28    1
    45    27    48    1
    46    27    49    1
    47    28    29    1
    48    28    50    1
    49    28    51    1
    50    29    30    1
    51    29    34    1
    52    30    31    1
    53    30    52    1
    54    30    53    1
    55    31    32    1
    56    31    54    1
    57    31    55    1
    58    32    33    1
    59    32    56    1
    60    32    57    1
    61    33    34    1
    62    33    58    1
    63    33    59    1
    64    34    60    1
    65    34    61    1
@<TRIPOS>SUBSTRUCTURE
     1 <1>         1 TEMP              0 ****  ****    0 ROOT

