

@<TRIPOS>MOLECULE
ERinh1_1_ERRpdb_raloxifen
 61 65 1 0 0
SMALL
USER_CHARGES

mmff94s_NoEstat = 78.58
@<TRIPOS>ATOM
      1 C1         28.9662   -2.4289   26.3126 C.ar    1  <1>        -0.0494
      2 C2         27.5802   -2.2529   26.2974 C.ar    1  <1>        -0.0195
      3 C3         27.0216   -1.0538   26.7165 C.ar    1  <1>         0.1180
      4 O1         25.6687   -0.8932   26.6962 O.3     1  <1>        -0.5067
      5 C4         27.8330   -0.0070   27.1583 C.ar    1  <1>        -0.0058
      6 C5         29.2301   -0.1880   27.1725 C.ar    1  <1>         0.0241
      7 S1         30.4219    0.9534   27.6728 S.3     1  <1>        -0.0874
      8 C6         31.7000   -0.1251   27.3430 C.2     1  <1>         0.0313
      9 C7         33.0527    0.3212   27.5917 C.ar    1  <1>        -0.0104
     10 C8         33.6213    0.1438   28.8509 C.ar    1  <1>        -0.0501
     11 C9         34.9267    0.5735   29.0905 C.ar    1  <1>        -0.0196
     12 C10        35.6601    1.1792   28.0701 C.ar    1  <1>         0.1169
     13 O2         36.9339    1.5986   28.3039 O.3     1  <1>        -0.5068
     14 C11        35.0881    1.3555   26.8103 C.ar    1  <1>        -0.0196
     15 C12        33.7826    0.9258   26.5708 C.ar    1  <1>        -0.0501
     16 C13        29.8162   -1.3867   26.7554 C.ar    1  <1>         0.0008
     17 C14        31.2257   -1.3050   26.8695 C.2     1  <1>         0.0447
     18 C15        32.1410   -2.4075   26.5087 C.2     1  <1>         0.1948
     19 O3         32.7140   -3.0620   27.3930 O.2     1  <1>        -0.2866
     20 C16        32.3781   -2.7570   25.1173 C.ar    1  <1>         0.0225
     21 C17        31.6470   -2.1321   24.1068 C.ar    1  <1>        -0.0475
     22 C18        31.8744   -2.4673   22.7721 C.ar    1  <1>        -0.0193
     23 C19        32.8313   -3.4252   22.4564 C.ar    1  <1>         0.1206
     24 C20        33.5637   -4.0523   23.4578 C.ar    1  <1>        -0.0193
     25 C21        33.3363   -3.7171   24.7926 C.ar    1  <1>        -0.0475
     26 O4         33.0537   -3.7552   21.1452 O.3     1  <1>        -0.4907
     27 C22        33.6633   -2.7637   20.3290 C.3     1  <1>         0.1022
     28 C23        34.0772   -3.4015   19.0124 C.3     1  <1>         0.0331
     29 N1         34.8391   -2.4555   18.1973 N.3     1  <1>        -0.2991
     30 C24        36.0599   -2.0378   18.9011 C.3     1  <1>        -0.0010
     31 C25        36.8439   -1.0105   18.0832 C.3     1  <1>        -0.0402
     32 C26        37.1722   -1.5423   16.6927 C.3     1  <1>        -0.0507
     33 C27        35.9099   -2.0488   16.0044 C.3     1  <1>        -0.0402
     34 C28        35.1554   -3.0434   16.8882 C.3     1  <1>        -0.0010
     35 H1         29.3846   -3.3761   25.9810 H       1  <1>         0.0625
     36 H2         26.9433   -3.0642   25.9544 H       1  <1>         0.0654
     37 H3         25.4542   -0.0001   27.0209 H       1  <1>         0.2921
     38 H4         27.3921    0.9310   27.4849 H       1  <1>         0.0665
     39 H5         33.0629   -0.3262   29.6568 H       1  <1>         0.0625
     40 H6         35.3668    0.4328   30.0741 H       1  <1>         0.0654
     41 H7         37.1546    1.4286   29.2378 H       1  <1>         0.2921
     42 H8         35.6539    1.8263   26.0110 H       1  <1>         0.0654
     43 H9         33.3509    1.0689   25.5830 H       1  <1>         0.0625
     44 H10        30.8978   -1.3825   24.3482 H       1  <1>         0.0626
     45 H11        31.3014   -1.9774   21.9895 H       1  <1>         0.0654
     46 H12        34.3114   -4.8012   23.2114 H       1  <1>         0.0654
     47 H13        33.9116   -4.2105   25.5718 H       1  <1>         0.0626
     48 H14        32.9407   -1.9570   20.1663 H       1  <1>         0.0709
     49 H15        34.5306   -2.3614   20.8631 H       1  <1>         0.0709
     50 H16        34.6750   -4.3000   19.2033 H       1  <1>         0.0460
     51 H17        33.1885   -3.7315   18.4629 H       1  <1>         0.0460
     52 H18        35.7916   -1.5822   19.8619 H       1  <1>         0.0427
     53 H19        36.6987   -2.9040   19.1183 H       1  <1>         0.0427
     54 H20        36.2578   -0.0871   17.9932 H       1  <1>         0.0278
     55 H21        37.7706   -0.7502   18.6069 H       1  <1>         0.0278
     56 H22        37.6401   -0.7562   16.0898 H       1  <1>         0.0266
     57 H23        37.8980   -2.3605   16.7750 H       1  <1>         0.0266
     58 H24        35.2564   -1.1989   15.7694 H       1  <1>         0.0278
     59 H25        36.1722   -2.5235   15.0521 H       1  <1>         0.0278
     60 H26        35.7513   -3.9578   17.0074 H       1  <1>         0.0427
     61 H27        34.2261   -3.3237   16.3774 H       1  <1>         0.0427
@<TRIPOS>BOND
     1     1     2   ar
     2     1    16   ar
     3     1    35    1
     4     2     3   ar
     5     2    36    1
     6     3     4    1
     7     3     5   ar
     8     4    37    1
     9     5     6   ar
    10     5    38    1
    11     6     7    1
    12     6    16   ar
    13     7     8    1
    14     8     9    1
    15     8    17    2
    16     9    10   ar
    17     9    15   ar
    18    10    11   ar
    19    10    39    1
    20    11    12   ar
    21    11    40    1
    22    12    13    1
    23    12    14   ar
    24    13    41    1
    25    14    15   ar
    26    14    42    1
    27    15    43    1
    28    16    17    1
    29    17    18    1
    30    18    19    2
    31    18    20    1
    32    20    21   ar
    33    20    25   ar
    34    21    22   ar
    35    21    44    1
    36    22    23   ar
    37    22    45    1
    38    23    24   ar
    39    23    26    1
    40    24    25   ar
    41    24    46    1
    42    25    47    1
    43    26    27    1
    44    27    28    1
    45    27    48    1
    46    27    49    1
    47    28    29    1
    48    28    50    1
    49    28    51    1
    50    29    30    1
    51    29    34    1
    52    30    31    1
    53    30    52    1
    54    30    53    1
    55    31    32    1
    56    31    54    1
    57    31    55    1
    58    32    33    1
    59    32    56    1
    60    32    57    1
    61    33    34    1
    62    33    58    1
    63    33    59    1
    64    34    60    1
    65    34    61    1
@<TRIPOS>SUBSTRUCTURE
     1 <1>         1 TEMP              0 ****  ****    0 ROOT



@<TRIPOS>MOLECULE
ERinh1_1_ERRpdb_raloxifen
 61 65 1 0 0
SMALL
USER_CHARGES

mmff94s_NoEstat = 78.58
@<TRIPOS>ATOM
      1 C1         28.9702   -2.8560   26.6219 C.ar    1  <1>        -0.0494
      2 C2         27.5765   -2.7662   26.6635 C.ar    1  <1>        -0.0195
      3 C3         26.9624   -1.6062   27.1140 C.ar    1  <1>         0.1180
      4 O1         25.6025   -1.5297   27.1492 O.3     1  <1>        -0.5067
      5 C4         27.7249   -0.5136   27.5313 C.ar    1  <1>        -0.0058
      6 C5         29.1299   -0.6077   27.4881 C.ar    1  <1>         0.0241
      7 S1         30.2683    0.6026   27.9493 S.3     1  <1>        -0.0874
      8 C6         31.5961   -0.3929   27.5601 C.2     1  <1>         0.0313
      9 C7         32.9277    0.1351   27.7580 C.ar    1  <1>        -0.0104
     10 C8         33.5999   -0.1083   28.9535 C.ar    1  <1>        -0.0501
     11 C9         34.8849    0.4002   29.1440 C.ar    1  <1>        -0.0196
     12 C10        35.4943    1.1505   28.1382 C.ar    1  <1>         0.1169
     13 O2         36.7483    1.6468   28.3240 O.3     1  <1>        -0.5068
     14 C11        34.8188    1.3926   26.9422 C.ar    1  <1>        -0.0196
     15 C12        33.5337    0.8840   26.7519 C.ar    1  <1>        -0.0501
     16 C13        29.7715   -1.7656   27.0385 C.ar    1  <1>         0.0008
     17 C14        31.1767   -1.5973   27.0967 C.2     1  <1>         0.0447
     18 C15        32.1430   -2.6390   26.6909 C.2     1  <1>         0.1948
     19 O3         32.7738   -3.2774   27.5472 O.2     1  <1>        -0.2866
     20 C16        32.3642   -2.9472   25.2871 C.ar    1  <1>         0.0225
     21 C17        31.5325   -2.3954   24.3124 C.ar    1  <1>        -0.0475
     22 C18        31.7446   -2.6910   22.9659 C.ar    1  <1>        -0.0193
     23 C19        32.7870   -3.5363   22.6027 C.ar    1  <1>         0.1206
     24 C20        33.6198   -4.0899   23.5682 C.ar    1  <1>        -0.0193
     25 C21        33.4077   -3.7944   24.9148 C.ar    1  <1>        -0.0475
     26 O4         32.9945   -3.8274   21.2799 O.3     1  <1>        -0.4907
     27 C22        32.9249   -2.7410   20.3657 C.3     1  <1>         0.1022
     28 C23        32.9029   -3.2945   18.9498 C.3     1  <1>         0.0331
     29 N1         34.1112   -4.0739   18.6812 N.3     1  <1>        -0.2991
     30 C24        34.0845   -4.6077   17.3120 C.3     1  <1>        -0.0010
     31 C25        35.3182   -5.4666   17.0307 C.3     1  <1>        -0.0402
     32 C26        36.6048   -4.6898   17.2870 C.3     1  <1>        -0.0507
     33 C27        36.5853   -4.0717   18.6803 C.3     1  <1>        -0.0402
     34 C28        35.3112   -3.2570   18.9094 C.3     1  <1>        -0.0010
     35 H1         29.4325   -3.7737   26.2663 H       1  <1>         0.0625
     36 H2         26.9776   -3.6135   26.3399 H       1  <1>         0.0654
     37 H3         25.2327   -2.3242   26.7238 H       1  <1>         0.2921
     38 H4         27.2405    0.3936   27.8825 H       1  <1>         0.0665
     39 H5         33.1386   -0.6909   29.7472 H       1  <1>         0.0625
     40 H6         35.4061    0.2077   30.0779 H       1  <1>         0.0654
     41 H7         37.0123    2.1409   27.5265 H       1  <1>         0.2921
     42 H8         35.2878    1.9759   26.1546 H       1  <1>         0.0654
     43 H9         33.0204    1.0800   25.8134 H       1  <1>         0.0625
     44 H10        30.7163   -1.7340   24.5911 H       1  <1>         0.0626
     45 H11        31.0931   -2.2586   22.2114 H       1  <1>         0.0654
     46 H12        34.4343   -4.7509   23.2847 H       1  <1>         0.0654
     47 H13        34.0617   -4.2300   25.6659 H       1  <1>         0.0626
     48 H14        32.0169   -2.1668   20.5787 H       1  <1>         0.0709
     49 H15        33.7972   -2.0984   20.5253 H       1  <1>         0.0709
     50 H16        32.0132   -3.9181   18.8055 H       1  <1>         0.0460
     51 H17        32.8251   -2.4722   18.2298 H       1  <1>         0.0460
     52 H18        33.1920   -5.2313   17.1789 H       1  <1>         0.0427
     53 H19        34.0250   -3.7930   16.5786 H       1  <1>         0.0427
     54 H20        35.2972   -6.3605   17.6669 H       1  <1>         0.0278
     55 H21        35.2978   -5.8141   15.9917 H       1  <1>         0.0278
     56 H22        37.4715   -5.3515   17.1810 H       1  <1>         0.0266
     57 H23        36.7105   -3.8973   16.5360 H       1  <1>         0.0266
     58 H24        36.6514   -4.8673   19.4335 H       1  <1>         0.0278
     59 H25        37.4643   -3.4309   18.8138 H       1  <1>         0.0278
     60 H26        35.3120   -2.3769   18.2526 H       1  <1>         0.0427
     61 H27        35.3156   -2.8922   19.9438 H       1  <1>         0.0427
@<TRIPOS>BOND
     1     1     2   ar
     2     1    16   ar
     3     1    35    1
     4     2     3   ar
     5     2    36    1
     6     3     4    1
     7     3     5   ar
     8     4    37    1
     9     5     6   ar
    10     5    38    1
    11     6     7    1
    12     6    16   ar
    13     7     8    1
    14     8     9    1
    15     8    17    2
    16     9    10   ar
    17     9    15   ar
    18    10    11   ar
    19    10    39    1
    20    11    12   ar
    21    11    40    1
    22    12    13    1
    23    12    14   ar
    24    13    41    1
    25    14    15   ar
    26    14    42    1
    27    15    43    1
    28    16    17    1
    29    17    18    1
    30    18    19    2
    31    18    20    1
    32    20    21   ar
    33    20    25   ar
    34    21    22   ar
    35    21    44    1
    36    22    23   ar
    37    22    45    1
    38    23    24   ar
    39    23    26    1
    40    24    25   ar
    41    24    46    1
    42    25    47    1
    43    26    27    1
    44    27    28    1
    45    27    48    1
    46    27    49    1
    47    28    29    1
    48    28    50    1
    49    28    51    1
    50    29    30    1
    51    29    34    1
    52    30    31    1
    53    30    52    1
    54    30    53    1
    55    31    32    1
    56    31    54    1
    57    31    55    1
    58    32    33    1
    59    32    56    1
    60    32    57    1
    61    33    34    1
    62    33    58    1
    63    33    59    1
    64    34    60    1
    65    34    61    1
@<TRIPOS>SUBSTRUCTURE
     1 <1>         1 TEMP              0 ****  ****    0 ROOT



@<TRIPOS>MOLECULE
ERinh1_1_ERRpdb_raloxifen
 61 65 1 0 0
SMALL
USER_CHARGES

mmff94s_NoEstat = 78.58
@<TRIPOS>ATOM
      1 C1         34.1263   -1.6827   26.7893 C.ar    1  <1>        -0.0494
      2 C2         35.3914   -1.2446   27.1890 C.ar    1  <1>        -0.0195
      3 C3         35.5174   -0.2047   28.0991 C.ar    1  <1>         0.1180
      4 O1         36.7563    0.2134   28.4824 O.3     1  <1>        -0.5067
      5 C4         34.3857    0.4184   28.6286 C.ar    1  <1>        -0.0058
      6 C5         33.1117   -0.0258   28.2232 C.ar    1  <1>         0.0241
      7 S1         31.5840    0.5867   28.7376 S.3     1  <1>        -0.0874
      8 C6         30.7289   -0.5173   27.7600 C.2     1  <1>         0.0313
      9 C7         29.2838   -0.4711   27.7797 C.ar    1  <1>        -0.0104
     10 C8         28.6146    0.5784   27.1544 C.ar    1  <1>        -0.0501
     11 C9         27.2204    0.6223   27.1726 C.ar    1  <1>        -0.0196
     12 C10        26.4992   -0.3835   27.8159 C.ar    1  <1>         0.1169
     13 O2         25.1386   -0.3408   27.8338 O.3     1  <1>        -0.5068
     14 C11        27.1720   -1.4332   28.4413 C.ar    1  <1>        -0.0196
     15 C12        28.5663   -1.4770   28.4230 C.ar    1  <1>        -0.0501
     16 C13        32.9592   -1.0713   27.3076 C.ar    1  <1>         0.0008
     17 C14        31.5839   -1.3171   27.0740 C.2     1  <1>         0.0447
     18 C15        31.0839   -2.3604   26.1549 C.2     1  <1>         0.1948
     19 O3         30.0436   -2.9825   26.4184 O.2     1  <1>        -0.2866
     20 C16        31.7883   -2.6694   24.9208 C.ar    1  <1>         0.0225
     21 C17        31.2843   -2.2222   23.6993 C.ar    1  <1>        -0.0475
     22 C18        31.9599   -2.5186   22.5156 C.ar    1  <1>        -0.0193
     23 C19        33.1351   -3.2600   22.5609 C.ar    1  <1>         0.1206
     24 C20        33.6434   -3.7091   23.7743 C.ar    1  <1>        -0.0193
     25 C21        32.9678   -3.4129   24.9581 C.ar    1  <1>        -0.0475
     26 O4         33.7981   -3.5521   21.3977 O.3     1  <1>        -0.4907
     27 C22        33.1467   -3.2026   20.1835 C.3     1  <1>         0.1022
     28 C23        33.8957   -3.8427   19.0255 C.3     1  <1>         0.0331
     29 N1         35.3098   -3.4697   19.0560 N.3     1  <1>        -0.2991
     30 C24        36.0368   -4.1210   17.9573 C.3     1  <1>        -0.0010
     31 C25        37.5272   -3.7805   18.0037 C.3     1  <1>        -0.0402
     32 C26        37.7524   -2.2728   17.9870 C.3     1  <1>        -0.0507
     33 C27        36.9289   -1.5991   19.0787 C.3     1  <1>        -0.0402
     34 C28        35.4574   -2.0087   18.9982 C.3     1  <1>        -0.0010
     35 H1         34.0485   -2.4985   26.0747 H       1  <1>         0.0625
     36 H2         36.2762   -1.7258   26.7803 H       1  <1>         0.0654
     37 H3         36.6695    0.7517   29.2897 H       1  <1>         0.2921
     38 H4         34.4883    1.2318   29.3419 H       1  <1>         0.0665
     39 H5         29.1622    1.3702   26.6490 H       1  <1>         0.0625
     40 H6         26.7021    1.4425   26.6831 H       1  <1>         0.0654
     41 H7         24.8437    0.4729   27.3856 H       1  <1>         0.2921
     42 H8         26.6162   -2.2200   28.9439 H       1  <1>         0.0654
     43 H9         29.0765   -2.3024   28.9138 H       1  <1>         0.0625
     44 H10        30.3660   -1.6422   23.6583 H       1  <1>         0.0626
     45 H11        31.5620   -2.1680   21.5671 H       1  <1>         0.0654
     46 H12        34.5617   -4.2890   23.8100 H       1  <1>         0.0654
     47 H13        33.3695   -3.7665   25.9043 H       1  <1>         0.0626
     48 H14        32.1126   -3.5602   20.2299 H       1  <1>         0.0709
     49 H15        33.1416   -2.1110   20.0956 H       1  <1>         0.0709
     50 H16        33.7933   -4.9329   19.0705 H       1  <1>         0.0460
     51 H17        33.4504   -3.5285   18.0750 H       1  <1>         0.0460
     52 H18        35.9286   -5.2092   18.0402 H       1  <1>         0.0427
     53 H19        35.6193   -3.8252   16.9859 H       1  <1>         0.0427
     54 H20        37.9741   -4.2075   18.9104 H       1  <1>         0.0278
     55 H21        38.0381   -4.2393   17.1498 H       1  <1>         0.0278
     56 H22        38.8159   -2.0495   18.1258 H       1  <1>         0.0266
     57 H23        37.4634   -1.8697   17.0087 H       1  <1>         0.0266
     58 H24        37.3320   -1.8737   20.0618 H       1  <1>         0.0278
     59 H25        37.0162   -0.5102   18.9899 H       1  <1>         0.0278
     60 H26        35.0127   -1.6101   18.0767 H       1  <1>         0.0427
     61 H27        34.9250   -1.5522   19.8414 H       1  <1>         0.0427
@<TRIPOS>BOND
     1     1     2   ar
     2     1    16   ar
     3     1    35    1
     4     2     3   ar
     5     2    36    1
     6     3     4    1
     7     3     5   ar
     8     4    37    1
     9     5     6   ar
    10     5    38    1
    11     6     7    1
    12     6    16   ar
    13     7     8    1
    14     8     9    1
    15     8    17    2
    16     9    10   ar
    17     9    15   ar
    18    10    11   ar
    19    10    39    1
    20    11    12   ar
    21    11    40    1
    22    12    13    1
    23    12    14   ar
    24    13    41    1
    25    14    15   ar
    26    14    42    1
    27    15    43    1
    28    16    17    1
    29    17    18    1
    30    18    19    2
    31    18    20    1
    32    20    21   ar
    33    20    25   ar
    34    21    22   ar
    35    21    44    1
    36    22    23   ar
    37    22    45    1
    38    23    24   ar
    39    23    26    1
    40    24    25   ar
    41    24    46    1
    42    25    47    1
    43    26    27    1
    44    27    28    1
    45    27    48    1
    46    27    49    1
    47    28    29    1
    48    28    50    1
    49    28    51    1
    50    29    30    1
    51    29    34    1
    52    30    31    1
    53    30    52    1
    54    30    53    1
    55    31    32    1
    56    31    54    1
    57    31    55    1
    58    32    33    1
    59    32    56    1
    60    32    57    1
    61    33    34    1
    62    33    58    1
    63    33    59    1
    64    34    60    1
    65    34    61    1
@<TRIPOS>SUBSTRUCTURE
     1 <1>         1 TEMP              0 ****  ****    0 ROOT


@<TRIPOS>MOLECULE
ERinh1_1_ERRpdb_raloxifen
 61 65 1 0 0
SMALL
USER_CHARGES

mmff94s_NoEstat = 78.58
@<TRIPOS>ATOM
      1 C1         29.1534   -2.8660   26.5604 C.ar    1  <1>        -0.0494
      2 C2         27.7594   -2.8173   26.6433 C.ar    1  <1>        -0.0195
      3 C3         27.1245   -1.6715   27.1010 C.ar    1  <1>         0.1180
      4 O1         25.7645   -1.6351   27.1766 O.3     1  <1>        -0.5067
      5 C4         27.8659   -0.5522   27.4844 C.ar    1  <1>        -0.0058
      6 C5         29.2711   -0.6049   27.3997 C.ar    1  <1>         0.0241
      7 S1         30.3858    0.6436   27.8145 S.3     1  <1>        -0.0874
      8 C6         31.7308   -0.3159   27.3949 C.2     1  <1>         0.0313
      9 C7         33.0512    0.2536   27.5473 C.ar    1  <1>        -0.0104
     10 C8         33.7991   -0.0245   28.6891 C.ar    1  <1>        -0.0501
     11 C9         35.0734    0.5241   28.8356 C.ar    1  <1>        -0.0196
     12 C10        35.5963    1.3490   27.8397 C.ar    1  <1>         0.1169
     13 O2         36.8397    1.8845   27.9826 O.3     1  <1>        -0.5068
     14 C11        34.8450    1.6258   26.6976 C.ar    1  <1>        -0.0196
     15 C12        33.5708    1.0771   26.5512 C.ar    1  <1>        -0.0501
     16 C13        29.9335   -1.7478   26.9420 C.ar    1  <1>         0.0008
     17 C14        31.3342   -1.5371   26.9561 C.2     1  <1>         0.0447
     18 C15        32.3187   -2.5537   26.5313 C.2     1  <1>         0.1948
     19 O3         32.9576   -3.1999   27.3758 O.2     1  <1>        -0.2866
     20 C16        32.5492   -2.8280   25.1220 C.ar    1  <1>         0.0225
     21 C17        31.6662   -2.3339   24.1617 C.ar    1  <1>        -0.0475
     22 C18        31.8872   -2.5969   22.8099 C.ar    1  <1>        -0.0193
     23 C19        32.9898   -3.3523   22.4270 C.ar    1  <1>         0.1206
     24 C20        33.8741   -3.8481   23.3780 C.ar    1  <1>        -0.0193
     25 C21        33.6531   -3.5852   24.7299 C.ar    1  <1>        -0.0475
     26 O4         33.2061   -3.6116   21.0989 O.3     1  <1>        -0.4907
     27 C22        32.2085   -3.1683   20.1883 C.3     1  <1>         0.1022
     28 C23        32.7482   -3.2950   18.7726 C.3     1  <1>         0.0331
     29 N1         34.1438   -2.8612   18.7112 N.3     1  <1>        -0.2991
     30 C24        34.6182   -2.8518   17.3203 C.3     1  <1>        -0.0010
     31 C25        36.0912   -2.4475   17.2426 C.3     1  <1>        -0.0402
     32 C26        36.3317   -1.0975   17.9088 C.3     1  <1>        -0.0507
     33 C27        35.7618   -1.0922   19.3227 C.3     1  <1>        -0.0402
     34 C28        34.2991   -1.5395   19.3344 C.3     1  <1>        -0.0010
     35 H1         29.6322   -3.7732   26.1999 H       1  <1>         0.0625
     36 H2         27.1768   -3.6855   26.3462 H       1  <1>         0.0654
     37 H3         25.4173   -2.5298   27.0095 H       1  <1>         0.2921
     38 H4         27.3650    0.3437   27.8414 H       1  <1>         0.0665
     39 H5         33.4056   -0.6654   29.4743 H       1  <1>         0.0625
     40 H6         35.6538    0.3042   29.7275 H       1  <1>         0.0654
     41 H7         37.1279    1.7684   28.9064 H       1  <1>         0.2921
     42 H8         35.2466    2.2674   25.9180 H       1  <1>         0.0654
     43 H9         32.9978    1.3010   25.6544 H       1  <1>         0.0625
     44 H10        30.8027   -1.7428   24.4558 H       1  <1>         0.0626
     45 H11        31.1955   -2.2097   22.0666 H       1  <1>         0.0654
     46 H12        34.7357   -4.4388   23.0791 H       1  <1>         0.0654
     47 H13        34.3475   -3.9753   25.4697 H       1  <1>         0.0626
     48 H14        31.3147   -3.7859   20.3263 H       1  <1>         0.0709
     49 H15        31.9616   -2.1280   20.4255 H       1  <1>         0.0709
     50 H16        32.6615   -4.3325   18.4305 H       1  <1>         0.0460
     51 H17        32.1424   -2.6911   18.0878 H       1  <1>         0.0460
     52 H18        34.5124   -3.8550   16.8898 H       1  <1>         0.0427
     53 H19        34.0139   -2.1693   16.7083 H       1  <1>         0.0427
     54 H20        36.7088   -3.2120   17.7306 H       1  <1>         0.0278
     55 H21        36.4078   -2.4032   16.1944 H       1  <1>         0.0278
     56 H22        37.4044   -0.8762   17.9344 H       1  <1>         0.0266
     57 H23        35.8534   -0.3067   17.3180 H       1  <1>         0.0266
     58 H24        36.3548   -1.7628   19.9576 H       1  <1>         0.0278
     59 H25        35.8460   -0.0875   19.7522 H       1  <1>         0.0278
     60 H26        33.6802   -0.7928   18.8196 H       1  <1>         0.0427
     61 H27        33.9593   -1.5826   20.3764 H       1  <1>         0.0427
@<TRIPOS>BOND
     1     1     2   ar
     2     1    16   ar
     3     1    35    1
     4     2     3   ar
     5     2    36    1
     6     3     4    1
     7     3     5   ar
     8     4    37    1
     9     5     6   ar
    10     5    38    1
    11     6     7    1
    12     6    16   ar
    13     7     8    1
    14     8     9    1
    15     8    17    2
    16     9    10   ar
    17     9    15   ar
    18    10    11   ar
    19    10    39    1
    20    11    12   ar
    21    11    40    1
    22    12    13    1
    23    12    14   ar
    24    13    41    1
    25    14    15   ar
    26    14    42    1
    27    15    43    1
    28    16    17    1
    29    17    18    1
    30    18    19    2
    31    18    20    1
    32    20    21   ar
    33    20    25   ar
    34    21    22   ar
    35    21    44    1
    36    22    23   ar
    37    22    45    1
    38    23    24   ar
    39    23    26    1
    40    24    25   ar
    41    24    46    1
    42    25    47    1
    43    26    27    1
    44    27    28    1
    45    27    48    1
    46    27    49    1
    47    28    29    1
    48    28    50    1
    49    28    51    1
    50    29    30    1
    51    29    34    1
    52    30    31    1
    53    30    52    1
    54    30    53    1
    55    31    32    1
    56    31    54    1
    57    31    55    1
    58    32    33    1
    59    32    56    1
    60    32    57    1
    61    33    34    1
    62    33    58    1
    63    33    59    1
    64    34    60    1
    65    34    61    1
@<TRIPOS>SUBSTRUCTURE
     1 <1>         1 TEMP              0 ****  ****    0 ROOT



@<TRIPOS>MOLECULE
ERinh1_1_ERRpdb_raloxifen
 61 65 1 0 0
SMALL
USER_CHARGES

mmff94s_NoEstat = 78.58
@<TRIPOS>ATOM
      1 C1         28.9662   -2.4289   26.3126 C.ar    1  <1>        -0.0494
      2 C2         27.5802   -2.2529   26.2974 C.ar    1  <1>        -0.0195
      3 C3         27.0216   -1.0538   26.7165 C.ar    1  <1>         0.1180
      4 O1         25.6687   -0.8932   26.6962 O.3     1  <1>        -0.5067
      5 C4         27.8330   -0.0070   27.1583 C.ar    1  <1>        -0.0058
      6 C5         29.2301   -0.1880   27.1725 C.ar    1  <1>         0.0241
      7 S1         30.4219    0.9534   27.6728 S.3     1  <1>        -0.0874
      8 C6         31.7000   -0.1251   27.3430 C.2     1  <1>         0.0313
      9 C7         33.0527    0.3212   27.5917 C.ar    1  <1>        -0.0104
     10 C8         33.6213    0.1438   28.8509 C.ar    1  <1>        -0.0501
     11 C9         34.9267    0.5735   29.0905 C.ar    1  <1>        -0.0196
     12 C10        35.6601    1.1792   28.0701 C.ar    1  <1>         0.1169
     13 O2         36.9339    1.5986   28.3039 O.3     1  <1>        -0.5068
     14 C11        35.0881    1.3555   26.8103 C.ar    1  <1>        -0.0196
     15 C12        33.7826    0.9258   26.5708 C.ar    1  <1>        -0.0501
     16 C13        29.8162   -1.3867   26.7554 C.ar    1  <1>         0.0008
     17 C14        31.2257   -1.3050   26.8695 C.2     1  <1>         0.0447
     18 C15        32.1410   -2.4075   26.5087 C.2     1  <1>         0.1948
     19 O3         32.7140   -3.0620   27.3930 O.2     1  <1>        -0.2866
     20 C16        32.3781   -2.7570   25.1173 C.ar    1  <1>         0.0225
     21 C17        31.6470   -2.1321   24.1068 C.ar    1  <1>        -0.0475
     22 C18        31.8744   -2.4673   22.7721 C.ar    1  <1>        -0.0193
     23 C19        32.8313   -3.4252   22.4564 C.ar    1  <1>         0.1206
     24 C20        33.5637   -4.0523   23.4578 C.ar    1  <1>        -0.0193
     25 C21        33.3363   -3.7171   24.7926 C.ar    1  <1>        -0.0475
     26 O4         33.0537   -3.7552   21.1452 O.3     1  <1>        -0.4907
     27 C22        33.6633   -2.7637   20.3290 C.3     1  <1>         0.1022
     28 C23        34.0772   -3.4015   19.0124 C.3     1  <1>         0.0331
     29 N1         34.8391   -2.4555   18.1973 N.3     1  <1>        -0.2991
     30 C24        36.0599   -2.0378   18.9011 C.3     1  <1>        -0.0010
     31 C25        36.8439   -1.0105   18.0832 C.3     1  <1>        -0.0402
     32 C26        37.1722   -1.5423   16.6927 C.3     1  <1>        -0.0507
     33 C27        35.9099   -2.0488   16.0044 C.3     1  <1>        -0.0402
     34 C28        35.1554   -3.0434   16.8882 C.3     1  <1>        -0.0010
     35 H1         29.3846   -3.3761   25.9810 H       1  <1>         0.0625
     36 H2         26.9433   -3.0642   25.9544 H       1  <1>         0.0654
     37 H3         25.4542   -0.0001   27.0209 H       1  <1>         0.2921
     38 H4         27.3921    0.9310   27.4849 H       1  <1>         0.0665
     39 H5         33.0629   -0.3262   29.6568 H       1  <1>         0.0625
     40 H6         35.3668    0.4328   30.0741 H       1  <1>         0.0654
     41 H7         37.1546    1.4286   29.2378 H       1  <1>         0.2921
     42 H8         35.6539    1.8263   26.0110 H       1  <1>         0.0654
     43 H9         33.3509    1.0689   25.5830 H       1  <1>         0.0625
     44 H10        30.8978   -1.3825   24.3482 H       1  <1>         0.0626
     45 H11        31.3014   -1.9774   21.9895 H       1  <1>         0.0654
     46 H12        34.3114   -4.8012   23.2114 H       1  <1>         0.0654
     47 H13        33.9116   -4.2105   25.5718 H       1  <1>         0.0626
     48 H14        32.9407   -1.9570   20.1663 H       1  <1>         0.0709
     49 H15        34.5306   -2.3614   20.8631 H       1  <1>         0.0709
     50 H16        34.6750   -4.3000   19.2033 H       1  <1>         0.0460
     51 H17        33.1885   -3.7315   18.4629 H       1  <1>         0.0460
     52 H18        35.7916   -1.5822   19.8619 H       1  <1>         0.0427
     53 H19        36.6987   -2.9040   19.1183 H       1  <1>         0.0427
     54 H20        36.2578   -0.0871   17.9932 H       1  <1>         0.0278
     55 H21        37.7706   -0.7502   18.6069 H       1  <1>         0.0278
     56 H22        37.6401   -0.7562   16.0898 H       1  <1>         0.0266
     57 H23        37.8980   -2.3605   16.7750 H       1  <1>         0.0266
     58 H24        35.2564   -1.1989   15.7694 H       1  <1>         0.0278
     59 H25        36.1722   -2.5235   15.0521 H       1  <1>         0.0278
     60 H26        35.7513   -3.9578   17.0074 H       1  <1>         0.0427
     61 H27        34.2261   -3.3237   16.3774 H       1  <1>         0.0427
@<TRIPOS>BOND
     1     1     2   ar
     2     1    16   ar
     3     1    35    1
     4     2     3   ar
     5     2    36    1
     6     3     4    1
     7     3     5   ar
     8     4    37    1
     9     5     6   ar
    10     5    38    1
    11     6     7    1
    12     6    16   ar
    13     7     8    1
    14     8     9    1
    15     8    17    2
    16     9    10   ar
    17     9    15   ar
    18    10    11   ar
    19    10    39    1
    20    11    12   ar
    21    11    40    1
    22    12    13    1
    23    12    14   ar
    24    13    41    1
    25    14    15   ar
    26    14    42    1
    27    15    43    1
    28    16    17    1
    29    17    18    1
    30    18    19    2
    31    18    20    1
    32    20    21   ar
    33    20    25   ar
    34    21    22   ar
    35    21    44    1
    36    22    23   ar
    37    22    45    1
    38    23    24   ar
    39    23    26    1
    40    24    25   ar
    41    24    46    1
    42    25    47    1
    43    26    27    1
    44    27    28    1
    45    27    48    1
    46    27    49    1
    47    28    29    1
    48    28    50    1
    49    28    51    1
    50    29    30    1
    51    29    34    1
    52    30    31    1
    53    30    52    1
    54    30    53    1
    55    31    32    1
    56    31    54    1
    57    31    55    1
    58    32    33    1
    59    32    56    1
    60    32    57    1
    61    33    34    1
    62    33    58    1
    63    33    59    1
    64    34    60    1
    65    34    61    1
@<TRIPOS>SUBSTRUCTURE
     1 <1>         1 TEMP              0 ****  ****    0 ROOT



@<TRIPOS>MOLECULE
ERinh1_1_ERRpdb_raloxifen
 61 65 1 0 0
SMALL
USER_CHARGES

mmff94s_NoEstat = 78.58
@<TRIPOS>ATOM
      1 C1         28.9702   -2.8560   26.6219 C.ar    1  <1>        -0.0494
      2 C2         27.5765   -2.7662   26.6635 C.ar    1  <1>        -0.0195
      3 C3         26.9624   -1.6062   27.1140 C.ar    1  <1>         0.1180
      4 O1         25.6025   -1.5297   27.1492 O.3     1  <1>        -0.5067
      5 C4         27.7249   -0.5136   27.5313 C.ar    1  <1>        -0.0058
      6 C5         29.1299   -0.6077   27.4881 C.ar    1  <1>         0.0241
      7 S1         30.2683    0.6026   27.9493 S.3     1  <1>        -0.0874
      8 C6         31.5961   -0.3929   27.5601 C.2     1  <1>         0.0313
      9 C7         32.9277    0.1351   27.7580 C.ar    1  <1>        -0.0104
     10 C8         33.5999   -0.1083   28.9535 C.ar    1  <1>        -0.0501
     11 C9         34.8849    0.4002   29.1440 C.ar    1  <1>        -0.0196
     12 C10        35.4943    1.1505   28.1382 C.ar    1  <1>         0.1169
     13 O2         36.7483    1.6468   28.3240 O.3     1  <1>        -0.5068
     14 C11        34.8188    1.3926   26.9422 C.ar    1  <1>        -0.0196
     15 C12        33.5337    0.8840   26.7519 C.ar    1  <1>        -0.0501
     16 C13        29.7715   -1.7656   27.0385 C.ar    1  <1>         0.0008
     17 C14        31.1767   -1.5973   27.0967 C.2     1  <1>         0.0447
     18 C15        32.1430   -2.6390   26.6909 C.2     1  <1>         0.1948
     19 O3         32.7738   -3.2774   27.5472 O.2     1  <1>        -0.2866
     20 C16        32.3642   -2.9472   25.2871 C.ar    1  <1>         0.0225
     21 C17        31.5325   -2.3954   24.3124 C.ar    1  <1>        -0.0475
     22 C18        31.7446   -2.6910   22.9659 C.ar    1  <1>        -0.0193
     23 C19        32.7870   -3.5363   22.6027 C.ar    1  <1>         0.1206
     24 C20        33.6198   -4.0899   23.5682 C.ar    1  <1>        -0.0193
     25 C21        33.4077   -3.7944   24.9148 C.ar    1  <1>        -0.0475
     26 O4         32.9945   -3.8274   21.2799 O.3     1  <1>        -0.4907
     27 C22        32.9249   -2.7410   20.3657 C.3     1  <1>         0.1022
     28 C23        32.9029   -3.2945   18.9498 C.3     1  <1>         0.0331
     29 N1         34.1112   -4.0739   18.6812 N.3     1  <1>        -0.2991
     30 C24        34.0845   -4.6077   17.3120 C.3     1  <1>        -0.0010
     31 C25        35.3182   -5.4666   17.0307 C.3     1  <1>        -0.0402
     32 C26        36.6048   -4.6898   17.2870 C.3     1  <1>        -0.0507
     33 C27        36.5853   -4.0717   18.6803 C.3     1  <1>        -0.0402
     34 C28        35.3112   -3.2570   18.9094 C.3     1  <1>        -0.0010
     35 H1         29.4325   -3.7737   26.2663 H       1  <1>         0.0625
     36 H2         26.9776   -3.6135   26.3399 H       1  <1>         0.0654
     37 H3         25.2327   -2.3242   26.7238 H       1  <1>         0.2921
     38 H4         27.2405    0.3936   27.8825 H       1  <1>         0.0665
     39 H5         33.1386   -0.6909   29.7472 H       1  <1>         0.0625
     40 H6         35.4061    0.2077   30.0779 H       1  <1>         0.0654
     41 H7         37.0123    2.1409   27.5265 H       1  <1>         0.2921
     42 H8         35.2878    1.9759   26.1546 H       1  <1>         0.0654
     43 H9         33.0204    1.0800   25.8134 H       1  <1>         0.0625
     44 H10        30.7163   -1.7340   24.5911 H       1  <1>         0.0626
     45 H11        31.0931   -2.2586   22.2114 H       1  <1>         0.0654
     46 H12        34.4343   -4.7509   23.2847 H       1  <1>         0.0654
     47 H13        34.0617   -4.2300   25.6659 H       1  <1>         0.0626
     48 H14        32.0169   -2.1668   20.5787 H       1  <1>         0.0709
     49 H15        33.7972   -2.0984   20.5253 H       1  <1>         0.0709
     50 H16        32.0132   -3.9181   18.8055 H       1  <1>         0.0460
     51 H17        32.8251   -2.4722   18.2298 H       1  <1>         0.0460
     52 H18        33.1920   -5.2313   17.1789 H       1  <1>         0.0427
     53 H19        34.0250   -3.7930   16.5786 H       1  <1>         0.0427
     54 H20        35.2972   -6.3605   17.6669 H       1  <1>         0.0278
     55 H21        35.2978   -5.8141   15.9917 H       1  <1>         0.0278
     56 H22        37.4715   -5.3515   17.1810 H       1  <1>         0.0266
     57 H23        36.7105   -3.8973   16.5360 H       1  <1>         0.0266
     58 H24        36.6514   -4.8673   19.4335 H       1  <1>         0.0278
     59 H25        37.4643   -3.4309   18.8138 H       1  <1>         0.0278
     60 H26        35.3120   -2.3769   18.2526 H       1  <1>         0.0427
     61 H27        35.3156   -2.8922   19.9438 H       1  <1>         0.0427
@<TRIPOS>BOND
     1     1     2   ar
     2     1    16   ar
     3     1    35    1
     4     2     3   ar
     5     2    36    1
     6     3     4    1
     7     3     5   ar
     8     4    37    1
     9     5     6   ar
    10     5    38    1
    11     6     7    1
    12     6    16   ar
    13     7     8    1
    14     8     9    1
    15     8    17    2
    16     9    10   ar
    17     9    15   ar
    18    10    11   ar
    19    10    39    1
    20    11    12   ar
    21    11    40    1
    22    12    13    1
    23    12    14   ar
    24    13    41    1
    25    14    15   ar
    26    14    42    1
    27    15    43    1
    28    16    17    1
    29    17    18    1
    30    18    19    2
    31    18    20    1
    32    20    21   ar
    33    20    25   ar
    34    21    22   ar
    35    21    44    1
    36    22    23   ar
    37    22    45    1
    38    23    24   ar
    39    23    26    1
    40    24    25   ar
    41    24    46    1
    42    25    47    1
    43    26    27    1
    44    27    28    1
    45    27    48    1
    46    27    49    1
    47    28    29    1
    48    28    50    1
    49    28    51    1
    50    29    30    1
    51    29    34    1
    52    30    31    1
    53    30    52    1
    54    30    53    1
    55    31    32    1
    56    31    54    1
    57    31    55    1
    58    32    33    1
    59    32    56    1
    60    32    57    1
    61    33    34    1
    62    33    58    1
    63    33    59    1
    64    34    60    1
    65    34    61    1
@<TRIPOS>SUBSTRUCTURE
     1 <1>         1 TEMP              0 ****  ****    0 ROOT



@<TRIPOS>MOLECULE
ERinh1_1_ERRpdb_raloxifen
 61 65 1 0 0
SMALL
USER_CHARGES

mmff94s_NoEstat = 78.58
@<TRIPOS>ATOM
      1 C1         34.1263   -1.6827   26.7893 C.ar    1  <1>        -0.0494
      2 C2         35.3914   -1.2446   27.1890 C.ar    1  <1>        -0.0195
      3 C3         35.5174   -0.2047   28.0991 C.ar    1  <1>         0.1180
      4 O1         36.7563    0.2134   28.4824 O.3     1  <1>        -0.5067
      5 C4         34.3857    0.4184   28.6286 C.ar    1  <1>        -0.0058
      6 C5         33.1117   -0.0258   28.2232 C.ar    1  <1>         0.0241
      7 S1         31.5840    0.5867   28.7376 S.3     1  <1>        -0.0874
      8 C6         30.7289   -0.5173   27.7600 C.2     1  <1>         0.0313
      9 C7         29.2838   -0.4711   27.7797 C.ar    1  <1>        -0.0104
     10 C8         28.6146    0.5784   27.1544 C.ar    1  <1>        -0.0501
     11 C9         27.2204    0.6223   27.1726 C.ar    1  <1>        -0.0196
     12 C10        26.4992   -0.3835   27.8159 C.ar    1  <1>         0.1169
     13 O2         25.1386   -0.3408   27.8338 O.3     1  <1>        -0.5068
     14 C11        27.1720   -1.4332   28.4413 C.ar    1  <1>        -0.0196
     15 C12        28.5663   -1.4770   28.4230 C.ar    1  <1>        -0.0501
     16 C13        32.9592   -1.0713   27.3076 C.ar    1  <1>         0.0008
     17 C14        31.5839   -1.3171   27.0740 C.2     1  <1>         0.0447
     18 C15        31.0839   -2.3604   26.1549 C.2     1  <1>         0.1948
     19 O3         30.0436   -2.9825   26.4184 O.2     1  <1>        -0.2866
     20 C16        31.7883   -2.6694   24.9208 C.ar    1  <1>         0.0225
     21 C17        31.2843   -2.2222   23.6993 C.ar    1  <1>        -0.0475
     22 C18        31.9599   -2.5186   22.5156 C.ar    1  <1>        -0.0193
     23 C19        33.1351   -3.2600   22.5609 C.ar    1  <1>         0.1206
     24 C20        33.6434   -3.7091   23.7743 C.ar    1  <1>        -0.0193
     25 C21        32.9678   -3.4129   24.9581 C.ar    1  <1>        -0.0475
     26 O4         33.7981   -3.5521   21.3977 O.3     1  <1>        -0.4907
     27 C22        33.1467   -3.2026   20.1835 C.3     1  <1>         0.1022
     28 C23        33.8957   -3.8427   19.0255 C.3     1  <1>         0.0331
     29 N1         35.3098   -3.4697   19.0560 N.3     1  <1>        -0.2991
     30 C24        36.0368   -4.1210   17.9573 C.3     1  <1>        -0.0010
     31 C25        37.5272   -3.7805   18.0037 C.3     1  <1>        -0.0402
     32 C26        37.7524   -2.2728   17.9870 C.3     1  <1>        -0.0507
     33 C27        36.9289   -1.5991   19.0787 C.3     1  <1>        -0.0402
     34 C28        35.4574   -2.0087   18.9982 C.3     1  <1>        -0.0010
     35 H1         34.0485   -2.4985   26.0747 H       1  <1>         0.0625
     36 H2         36.2762   -1.7258   26.7803 H       1  <1>         0.0654
     37 H3         36.6695    0.7517   29.2897 H       1  <1>         0.2921
     38 H4         34.4883    1.2318   29.3419 H       1  <1>         0.0665
     39 H5         29.1622    1.3702   26.6490 H       1  <1>         0.0625
     40 H6         26.7021    1.4425   26.6831 H       1  <1>         0.0654
     41 H7         24.8437    0.4729   27.3856 H       1  <1>         0.2921
     42 H8         26.6162   -2.2200   28.9439 H       1  <1>         0.0654
     43 H9         29.0765   -2.3024   28.9138 H       1  <1>         0.0625
     44 H10        30.3660   -1.6422   23.6583 H       1  <1>         0.0626
     45 H11        31.5620   -2.1680   21.5671 H       1  <1>         0.0654
     46 H12        34.5617   -4.2890   23.8100 H       1  <1>         0.0654
     47 H13        33.3695   -3.7665   25.9043 H       1  <1>         0.0626
     48 H14        32.1126   -3.5602   20.2299 H       1  <1>         0.0709
     49 H15        33.1416   -2.1110   20.0956 H       1  <1>         0.0709
     50 H16        33.7933   -4.9329   19.0705 H       1  <1>         0.0460
     51 H17        33.4504   -3.5285   18.0750 H       1  <1>         0.0460
     52 H18        35.9286   -5.2092   18.0402 H       1  <1>         0.0427
     53 H19        35.6193   -3.8252   16.9859 H       1  <1>         0.0427
     54 H20        37.9741   -4.2075   18.9104 H       1  <1>         0.0278
     55 H21        38.0381   -4.2393   17.1498 H       1  <1>         0.0278
     56 H22        38.8159   -2.0495   18.1258 H       1  <1>         0.0266
     57 H23        37.4634   -1.8697   17.0087 H       1  <1>         0.0266
     58 H24        37.3320   -1.8737   20.0618 H       1  <1>         0.0278
     59 H25        37.0162   -0.5102   18.9899 H       1  <1>         0.0278
     60 H26        35.0127   -1.6101   18.0767 H       1  <1>         0.0427
     61 H27        34.9250   -1.5522   19.8414 H       1  <1>         0.0427
@<TRIPOS>BOND
     1     1     2   ar
     2     1    16   ar
     3     1    35    1
     4     2     3   ar
     5     2    36    1
     6     3     4    1
     7     3     5   ar
     8     4    37    1
     9     5     6   ar
    10     5    38    1
    11     6     7    1
    12     6    16   ar
    13     7     8    1
    14     8     9    1
    15     8    17    2
    16     9    10   ar
    17     9    15   ar
    18    10    11   ar
    19    10    39    1
    20    11    12   ar
    21    11    40    1
    22    12    13    1
    23    12    14   ar
    24    13    41    1
    25    14    15   ar
    26    14    42    1
    27    15    43    1
    28    16    17    1
    29    17    18    1
    30    18    19    2
    31    18    20    1
    32    20    21   ar
    33    20    25   ar
    34    21    22   ar
    35    21    44    1
    36    22    23   ar
    37    22    45    1
    38    23    24   ar
    39    23    26    1
    40    24    25   ar
    41    24    46    1
    42    25    47    1
    43    26    27    1
    44    27    28    1
    45    27    48    1
    46    27    49    1
    47    28    29    1
    48    28    50    1
    49    28    51    1
    50    29    30    1
    51    29    34    1
    52    30    31    1
    53    30    52    1
    54    30    53    1
    55    31    32    1
    56    31    54    1
    57    31    55    1
    58    32    33    1
    59    32    56    1
    60    32    57    1
    61    33    34    1
    62    33    58    1
    63    33    59    1
    64    34    60    1
    65    34    61    1
@<TRIPOS>SUBSTRUCTURE
     1 <1>         1 TEMP              0 ****  ****    0 ROOT

@<TRIPOS>MOLECULE
ERinh1_1_ERRpdb_raloxifen
 61 65 1 0 0
SMALL
USER_CHARGES

mmff94s_NoEstat = 78.58
@<TRIPOS>ATOM
      1 C1         29.1534   -2.8660   26.5604 C.ar    1  <1>        -0.0494
      2 C2         27.7594   -2.8173   26.6433 C.ar    1  <1>        -0.0195
      3 C3         27.1245   -1.6715   27.1010 C.ar    1  <1>         0.1180
      4 O1         25.7645   -1.6351   27.1766 O.3     1  <1>        -0.5067
      5 C4         27.8659   -0.5522   27.4844 C.ar    1  <1>        -0.0058
      6 C5         29.2711   -0.6049   27.3997 C.ar    1  <1>         0.0241
      7 S1         30.3858    0.6436   27.8145 S.3     1  <1>        -0.0874
      8 C6         31.7308   -0.3159   27.3949 C.2     1  <1>         0.0313
      9 C7         33.0512    0.2536   27.5473 C.ar    1  <1>        -0.0104
     10 C8         33.7991   -0.0245   28.6891 C.ar    1  <1>        -0.0501
     11 C9         35.0734    0.5241   28.8356 C.ar    1  <1>        -0.0196
     12 C10        35.5963    1.3490   27.8397 C.ar    1  <1>         0.1169
     13 O2         36.8397    1.8845   27.9826 O.3     1  <1>        -0.5068
     14 C11        34.8450    1.6258   26.6976 C.ar    1  <1>        -0.0196
     15 C12        33.5708    1.0771   26.5512 C.ar    1  <1>        -0.0501
     16 C13        29.9335   -1.7478   26.9420 C.ar    1  <1>         0.0008
     17 C14        31.3342   -1.5371   26.9561 C.2     1  <1>         0.0447
     18 C15        32.3187   -2.5537   26.5313 C.2     1  <1>         0.1948
     19 O3         32.9576   -3.1999   27.3758 O.2     1  <1>        -0.2866
     20 C16        32.5492   -2.8280   25.1220 C.ar    1  <1>         0.0225
     21 C17        31.6662   -2.3339   24.1617 C.ar    1  <1>        -0.0475
     22 C18        31.8872   -2.5969   22.8099 C.ar    1  <1>        -0.0193
     23 C19        32.9898   -3.3523   22.4270 C.ar    1  <1>         0.1206
     24 C20        33.8741   -3.8481   23.3780 C.ar    1  <1>        -0.0193
     25 C21        33.6531   -3.5852   24.7299 C.ar    1  <1>        -0.0475
     26 O4         33.2061   -3.6116   21.0989 O.3     1  <1>        -0.4907
     27 C22        32.2085   -3.1683   20.1883 C.3     1  <1>         0.1022
     28 C23        32.7482   -3.2950   18.7726 C.3     1  <1>         0.0331
     29 N1         34.1438   -2.8612   18.7112 N.3     1  <1>        -0.2991
     30 C24        34.6182   -2.8518   17.3203 C.3     1  <1>        -0.0010
     31 C25        36.0912   -2.4475   17.2426 C.3     1  <1>        -0.0402
     32 C26        36.3317   -1.0975   17.9088 C.3     1  <1>        -0.0507
     33 C27        35.7618   -1.0922   19.3227 C.3     1  <1>        -0.0402
     34 C28        34.2991   -1.5395   19.3344 C.3     1  <1>        -0.0010
     35 H1         29.6322   -3.7732   26.1999 H       1  <1>         0.0625
     36 H2         27.1768   -3.6855   26.3462 H       1  <1>         0.0654
     37 H3         25.4173   -2.5298   27.0095 H       1  <1>         0.2921
     38 H4         27.3650    0.3437   27.8414 H       1  <1>         0.0665
     39 H5         33.4056   -0.6654   29.4743 H       1  <1>         0.0625
     40 H6         35.6538    0.3042   29.7275 H       1  <1>         0.0654
     41 H7         37.1279    1.7684   28.9064 H       1  <1>         0.2921
     42 H8         35.2466    2.2674   25.9180 H       1  <1>         0.0654
     43 H9         32.9978    1.3010   25.6544 H       1  <1>         0.0625
     44 H10        30.8027   -1.7428   24.4558 H       1  <1>         0.0626
     45 H11        31.1955   -2.2097   22.0666 H       1  <1>         0.0654
     46 H12        34.7357   -4.4388   23.0791 H       1  <1>         0.0654
     47 H13        34.3475   -3.9753   25.4697 H       1  <1>         0.0626
     48 H14        31.3147   -3.7859   20.3263 H       1  <1>         0.0709
     49 H15        31.9616   -2.1280   20.4255 H       1  <1>         0.0709
     50 H16        32.6615   -4.3325   18.4305 H       1  <1>         0.0460
     51 H17        32.1424   -2.6911   18.0878 H       1  <1>         0.0460
     52 H18        34.5124   -3.8550   16.8898 H       1  <1>         0.0427
     53 H19        34.0139   -2.1693   16.7083 H       1  <1>         0.0427
     54 H20        36.7088   -3.2120   17.7306 H       1  <1>         0.0278
     55 H21        36.4078   -2.4032   16.1944 H       1  <1>         0.0278
     56 H22        37.4044   -0.8762   17.9344 H       1  <1>         0.0266
     57 H23        35.8534   -0.3067   17.3180 H       1  <1>         0.0266
     58 H24        36.3548   -1.7628   19.9576 H       1  <1>         0.0278
     59 H25        35.8460   -0.0875   19.7522 H       1  <1>         0.0278
     60 H26        33.6802   -0.7928   18.8196 H       1  <1>         0.0427
     61 H27        33.9593   -1.5826   20.3764 H       1  <1>         0.0427
@<TRIPOS>BOND
     1     1     2   ar
     2     1    16   ar
     3     1    35    1
     4     2     3   ar
     5     2    36    1
     6     3     4    1
     7     3     5   ar
     8     4    37    1
     9     5     6   ar
    10     5    38    1
    11     6     7    1
    12     6    16   ar
    13     7     8    1
    14     8     9    1
    15     8    17    2
    16     9    10   ar
    17     9    15   ar
    18    10    11   ar
    19    10    39    1
    20    11    12   ar
    21    11    40    1
    22    12    13    1
    23    12    14   ar
    24    13    41    1
    25    14    15   ar
    26    14    42    1
    27    15    43    1
    28    16    17    1
    29    17    18    1
    30    18    19    2
    31    18    20    1
    32    20    21   ar
    33    20    25   ar
    34    21    22   ar
    35    21    44    1
    36    22    23   ar
    37    22    45    1
    38    23    24   ar
    39    23    26    1
    40    24    25   ar
    41    24    46    1
    42    25    47    1
    43    26    27    1
    44    27    28    1
    45    27    48    1
    46    27    49    1
    47    28    29    1
    48    28    50    1
    49    28    51    1
    50    29    30    1
    51    29    34    1
    52    30    31    1
    53    30    52    1
    54    30    53    1
    55    31    32    1
    56    31    54    1
    57    31    55    1
    58    32    33    1
    59    32    56    1
    60    32    57    1
    61    33    34    1
    62    33    58    1
    63    33    59    1
    64    34    60    1
    65    34    61    1
@<TRIPOS>SUBSTRUCTURE
     1 <1>         1 TEMP              0 ****  ****    0 ROOT



@<TRIPOS>MOLECULE
ERinh1_1_ERRpdb_raloxifen
 61 65 1 0 0
SMALL
USER_CHARGES

mmff94s_NoEstat = 78.58
@<TRIPOS>ATOM
      1 C1         28.9662   -2.4289   26.3126 C.ar    1  <1>        -0.0494
      2 C2         27.5802   -2.2529   26.2974 C.ar    1  <1>        -0.0195
      3 C3         27.0216   -1.0538   26.7165 C.ar    1  <1>         0.1180
      4 O1         25.6687   -0.8932   26.6962 O.3     1  <1>        -0.5067
      5 C4         27.8330   -0.0070   27.1583 C.ar    1  <1>        -0.0058
      6 C5         29.2301   -0.1880   27.1725 C.ar    1  <1>         0.0241
      7 S1         30.4219    0.9534   27.6728 S.3     1  <1>        -0.0874
      8 C6         31.7000   -0.1251   27.3430 C.2     1  <1>         0.0313
      9 C7         33.0527    0.3212   27.5917 C.ar    1  <1>        -0.0104
     10 C8         33.6213    0.1438   28.8509 C.ar    1  <1>        -0.0501
     11 C9         34.9267    0.5735   29.0905 C.ar    1  <1>        -0.0196
     12 C10        35.6601    1.1792   28.0701 C.ar    1  <1>         0.1169
     13 O2         36.9339    1.5986   28.3039 O.3     1  <1>        -0.5068
     14 C11        35.0881    1.3555   26.8103 C.ar    1  <1>        -0.0196
     15 C12        33.7826    0.9258   26.5708 C.ar    1  <1>        -0.0501
     16 C13        29.8162   -1.3867   26.7554 C.ar    1  <1>         0.0008
     17 C14        31.2257   -1.3050   26.8695 C.2     1  <1>         0.0447
     18 C15        32.1410   -2.4075   26.5087 C.2     1  <1>         0.1948
     19 O3         32.7140   -3.0620   27.3930 O.2     1  <1>        -0.2866
     20 C16        32.3781   -2.7570   25.1173 C.ar    1  <1>         0.0225
     21 C17        31.6470   -2.1321   24.1068 C.ar    1  <1>        -0.0475
     22 C18        31.8744   -2.4673   22.7721 C.ar    1  <1>        -0.0193
     23 C19        32.8313   -3.4252   22.4564 C.ar    1  <1>         0.1206
     24 C20        33.5637   -4.0523   23.4578 C.ar    1  <1>        -0.0193
     25 C21        33.3363   -3.7171   24.7926 C.ar    1  <1>        -0.0475
     26 O4         33.0537   -3.7552   21.1452 O.3     1  <1>        -0.4907
     27 C22        33.6633   -2.7637   20.3290 C.3     1  <1>         0.1022
     28 C23        34.0772   -3.4015   19.0124 C.3     1  <1>         0.0331
     29 N1         34.8391   -2.4555   18.1973 N.3     1  <1>        -0.2991
     30 C24        36.0599   -2.0378   18.9011 C.3     1  <1>        -0.0010
     31 C25        36.8439   -1.0105   18.0832 C.3     1  <1>        -0.0402
     32 C26        37.1722   -1.5423   16.6927 C.3     1  <1>        -0.0507
     33 C27        35.9099   -2.0488   16.0044 C.3     1  <1>        -0.0402
     34 C28        35.1554   -3.0434   16.8882 C.3     1  <1>        -0.0010
     35 H1         29.3846   -3.3761   25.9810 H       1  <1>         0.0625
     36 H2         26.9433   -3.0642   25.9544 H       1  <1>         0.0654
     37 H3         25.4542   -0.0001   27.0209 H       1  <1>         0.2921
     38 H4         27.3921    0.9310   27.4849 H       1  <1>         0.0665
     39 H5         33.0629   -0.3262   29.6568 H       1  <1>         0.0625
     40 H6         35.3668    0.4328   30.0741 H       1  <1>         0.0654
     41 H7         37.1546    1.4286   29.2378 H       1  <1>         0.2921
     42 H8         35.6539    1.8263   26.0110 H       1  <1>         0.0654
     43 H9         33.3509    1.0689   25.5830 H       1  <1>         0.0625
     44 H10        30.8978   -1.3825   24.3482 H       1  <1>         0.0626
     45 H11        31.3014   -1.9774   21.9895 H       1  <1>         0.0654
     46 H12        34.3114   -4.8012   23.2114 H       1  <1>         0.0654
     47 H13        33.9116   -4.2105   25.5718 H       1  <1>         0.0626
     48 H14        32.9407   -1.9570   20.1663 H       1  <1>         0.0709
     49 H15        34.5306   -2.3614   20.8631 H       1  <1>         0.0709
     50 H16        34.6750   -4.3000   19.2033 H       1  <1>         0.0460
     51 H17        33.1885   -3.7315   18.4629 H       1  <1>         0.0460
     52 H18        35.7916   -1.5822   19.8619 H       1  <1>         0.0427
     53 H19        36.6987   -2.9040   19.1183 H       1  <1>         0.0427
     54 H20        36.2578   -0.0871   17.9932 H       1  <1>         0.0278
     55 H21        37.7706   -0.7502   18.6069 H       1  <1>         0.0278
     56 H22        37.6401   -0.7562   16.0898 H       1  <1>         0.0266
     57 H23        37.8980   -2.3605   16.7750 H       1  <1>         0.0266
     58 H24        35.2564   -1.1989   15.7694 H       1  <1>         0.0278
     59 H25        36.1722   -2.5235   15.0521 H       1  <1>         0.0278
     60 H26        35.7513   -3.9578   17.0074 H       1  <1>         0.0427
     61 H27        34.2261   -3.3237   16.3774 H       1  <1>         0.0427
@<TRIPOS>BOND
     1     1     2   ar
     2     1    16   ar
     3     1    35    1
     4     2     3   ar
     5     2    36    1
     6     3     4    1
     7     3     5   ar
     8     4    37    1
     9     5     6   ar
    10     5    38    1
    11     6     7    1
    12     6    16   ar
    13     7     8    1
    14     8     9    1
    15     8    17    2
    16     9    10   ar
    17     9    15   ar
    18    10    11   ar
    19    10    39    1
    20    11    12   ar
    21    11    40    1
    22    12    13    1
    23    12    14   ar
    24    13    41    1
    25    14    15   ar
    26    14    42    1
    27    15    43    1
    28    16    17    1
    29    17    18    1
    30    18    19    2
    31    18    20    1
    32    20    21   ar
    33    20    25   ar
    34    21    22   ar
    35    21    44    1
    36    22    23   ar
    37    22    45    1
    38    23    24   ar
    39    23    26    1
    40    24    25   ar
    41    24    46    1
    42    25    47    1
    43    26    27    1
    44    27    28    1
    45    27    48    1
    46    27    49    1
    47    28    29    1
    48    28    50    1
    49    28    51    1
    50    29    30    1
    51    29    34    1
    52    30    31    1
    53    30    52    1
    54    30    53    1
    55    31    32    1
    56    31    54    1
    57    31    55    1
    58    32    33    1
    59    32    56    1
    60    32    57    1
    61    33    34    1
    62    33    58    1
    63    33    59    1
    64    34    60    1
    65    34    61    1
@<TRIPOS>SUBSTRUCTURE
     1 <1>         1 TEMP              0 ****  ****    0 ROOT



@<TRIPOS>MOLECULE
ERinh1_1_ERRpdb_raloxifen
 61 65 1 0 0
SMALL
USER_CHARGES

mmff94s_NoEstat = 78.58
@<TRIPOS>ATOM
      1 C1         28.9702   -2.8560   26.6219 C.ar    1  <1>        -0.0494
      2 C2         27.5765   -2.7662   26.6635 C.ar    1  <1>        -0.0195
      3 C3         26.9624   -1.6062   27.1140 C.ar    1  <1>         0.1180
      4 O1         25.6025   -1.5297   27.1492 O.3     1  <1>        -0.5067
      5 C4         27.7249   -0.5136   27.5313 C.ar    1  <1>        -0.0058
      6 C5         29.1299   -0.6077   27.4881 C.ar    1  <1>         0.0241
      7 S1         30.2683    0.6026   27.9493 S.3     1  <1>        -0.0874
      8 C6         31.5961   -0.3929   27.5601 C.2     1  <1>         0.0313
      9 C7         32.9277    0.1351   27.7580 C.ar    1  <1>        -0.0104
     10 C8         33.5999   -0.1083   28.9535 C.ar    1  <1>        -0.0501
     11 C9         34.8849    0.4002   29.1440 C.ar    1  <1>        -0.0196
     12 C10        35.4943    1.1505   28.1382 C.ar    1  <1>         0.1169
     13 O2         36.7483    1.6468   28.3240 O.3     1  <1>        -0.5068
     14 C11        34.8188    1.3926   26.9422 C.ar    1  <1>        -0.0196
     15 C12        33.5337    0.8840   26.7519 C.ar    1  <1>        -0.0501
     16 C13        29.7715   -1.7656   27.0385 C.ar    1  <1>         0.0008
     17 C14        31.1767   -1.5973   27.0967 C.2     1  <1>         0.0447
     18 C15        32.1430   -2.6390   26.6909 C.2     1  <1>         0.1948
     19 O3         32.7738   -3.2774   27.5472 O.2     1  <1>        -0.2866
     20 C16        32.3642   -2.9472   25.2871 C.ar    1  <1>         0.0225
     21 C17        31.5325   -2.3954   24.3124 C.ar    1  <1>        -0.0475
     22 C18        31.7446   -2.6910   22.9659 C.ar    1  <1>        -0.0193
     23 C19        32.7870   -3.5363   22.6027 C.ar    1  <1>         0.1206
     24 C20        33.6198   -4.0899   23.5682 C.ar    1  <1>        -0.0193
     25 C21        33.4077   -3.7944   24.9148 C.ar    1  <1>        -0.0475
     26 O4         32.9945   -3.8274   21.2799 O.3     1  <1>        -0.4907
     27 C22        32.9249   -2.7410   20.3657 C.3     1  <1>         0.1022
     28 C23        32.9029   -3.2945   18.9498 C.3     1  <1>         0.0331
     29 N1         34.1112   -4.0739   18.6812 N.3     1  <1>        -0.2991
     30 C24        34.0845   -4.6077   17.3120 C.3     1  <1>        -0.0010
     31 C25        35.3182   -5.4666   17.0307 C.3     1  <1>        -0.0402
     32 C26        36.6048   -4.6898   17.2870 C.3     1  <1>        -0.0507
     33 C27        36.5853   -4.0717   18.6803 C.3     1  <1>        -0.0402
     34 C28        35.3112   -3.2570   18.9094 C.3     1  <1>        -0.0010
     35 H1         29.4325   -3.7737   26.2663 H       1  <1>         0.0625
     36 H2         26.9776   -3.6135   26.3399 H       1  <1>         0.0654
     37 H3         25.2327   -2.3242   26.7238 H       1  <1>         0.2921
     38 H4         27.2405    0.3936   27.8825 H       1  <1>         0.0665
     39 H5         33.1386   -0.6909   29.7472 H       1  <1>         0.0625
     40 H6         35.4061    0.2077   30.0779 H       1  <1>         0.0654
     41 H7         37.0123    2.1409   27.5265 H       1  <1>         0.2921
     42 H8         35.2878    1.9759   26.1546 H       1  <1>         0.0654
     43 H9         33.0204    1.0800   25.8134 H       1  <1>         0.0625
     44 H10        30.7163   -1.7340   24.5911 H       1  <1>         0.0626
     45 H11        31.0931   -2.2586   22.2114 H       1  <1>         0.0654
     46 H12        34.4343   -4.7509   23.2847 H       1  <1>         0.0654
     47 H13        34.0617   -4.2300   25.6659 H       1  <1>         0.0626
     48 H14        32.0169   -2.1668   20.5787 H       1  <1>         0.0709
     49 H15        33.7972   -2.0984   20.5253 H       1  <1>         0.0709
     50 H16        32.0132   -3.9181   18.8055 H       1  <1>         0.0460
     51 H17        32.8251   -2.4722   18.2298 H       1  <1>         0.0460
     52 H18        33.1920   -5.2313   17.1789 H       1  <1>         0.0427
     53 H19        34.0250   -3.7930   16.5786 H       1  <1>         0.0427
     54 H20        35.2972   -6.3605   17.6669 H       1  <1>         0.0278
     55 H21        35.2978   -5.8141   15.9917 H       1  <1>         0.0278
     56 H22        37.4715   -5.3515   17.1810 H       1  <1>         0.0266
     57 H23        36.7105   -3.8973   16.5360 H       1  <1>         0.0266
     58 H24        36.6514   -4.8673   19.4335 H       1  <1>         0.0278
     59 H25        37.4643   -3.4309   18.8138 H       1  <1>         0.0278
     60 H26        35.3120   -2.3769   18.2526 H       1  <1>         0.0427
     61 H27        35.3156   -2.8922   19.9438 H       1  <1>         0.0427
@<TRIPOS>BOND
     1     1     2   ar
     2     1    16   ar
     3     1    35    1
     4     2     3   ar
     5     2    36    1
     6     3     4    1
     7     3     5   ar
     8     4    37    1
     9     5     6   ar
    10     5    38    1
    11     6     7    1
    12     6    16   ar
    13     7     8    1
    14     8     9    1
    15     8    17    2
    16     9    10   ar
    17     9    15   ar
    18    10    11   ar
    19    10    39    1
    20    11    12   ar
    21    11    40    1
    22    12    13    1
    23    12    14   ar
    24    13    41    1
    25    14    15   ar
    26    14    42    1
    27    15    43    1
    28    16    17    1
    29    17    18    1
    30    18    19    2
    31    18    20    1
    32    20    21   ar
    33    20    25   ar
    34    21    22   ar
    35    21    44    1
    36    22    23   ar
    37    22    45    1
    38    23    24   ar
    39    23    26    1
    40    24    25   ar
    41    24    46    1
    42    25    47    1
    43    26    27    1
    44    27    28    1
    45    27    48    1
    46    27    49    1
    47    28    29    1
    48    28    50    1
    49    28    51    1
    50    29    30    1
    51    29    34    1
    52    30    31    1
    53    30    52    1
    54    30    53    1
    55    31    32    1
    56    31    54    1
    57    31    55    1
    58    32    33    1
    59    32    56    1
    60    32    57    1
    61    33    34    1
    62    33    58    1
    63    33    59    1
    64    34    60    1
    65    34    61    1
@<TRIPOS>SUBSTRUCTURE
     1 <1>         1 TEMP              0 ****  ****    0 ROOT



@<TRIPOS>MOLECULE
ER1_ERRpdb_raloxifen
 61 65 1 0 0
SMALL
USER_CHARGES

mmff94s_NoEstat = 78.58
@<TRIPOS>ATOM
      1 C1         34.1263   -1.6827   26.7893 C.ar    1  <1>        -0.0494
      2 C2         35.3914   -1.2446   27.1890 C.ar    1  <1>        -0.0195
      3 C3         35.5174   -0.2047   28.0991 C.ar    1  <1>         0.1180
      4 O1         36.7563    0.2134   28.4824 O.3     1  <1>        -0.5067
      5 C4         34.3857    0.4184   28.6286 C.ar    1  <1>        -0.0058
      6 C5         33.1117   -0.0258   28.2232 C.ar    1  <1>         0.0241
      7 S1         31.5840    0.5867   28.7376 S.3     1  <1>        -0.0874
      8 C6         30.7289   -0.5173   27.7600 C.2     1  <1>         0.0313
      9 C7         29.2838   -0.4711   27.7797 C.ar    1  <1>        -0.0104
     10 C8         28.6146    0.5784   27.1544 C.ar    1  <1>        -0.0501
     11 C9         27.2204    0.6223   27.1726 C.ar    1  <1>        -0.0196
     12 C10        26.4992   -0.3835   27.8159 C.ar    1  <1>         0.1169
     13 O2         25.1386   -0.3408   27.8338 O.3     1  <1>        -0.5068
     14 C11        27.1720   -1.4332   28.4413 C.ar    1  <1>        -0.0196
     15 C12        28.5663   -1.4770   28.4230 C.ar    1  <1>        -0.0501
     16 C13        32.9592   -1.0713   27.3076 C.ar    1  <1>         0.0008
     17 C14        31.5839   -1.3171   27.0740 C.2     1  <1>         0.0447
     18 C15        31.0839   -2.3604   26.1549 C.2     1  <1>         0.1948
     19 O3         30.0436   -2.9825   26.4184 O.2     1  <1>        -0.2866
     20 C16        31.7883   -2.6694   24.9208 C.ar    1  <1>         0.0225
     21 C17        31.2843   -2.2222   23.6993 C.ar    1  <1>        -0.0475
     22 C18        31.9599   -2.5186   22.5156 C.ar    1  <1>        -0.0193
     23 C19        33.1351   -3.2600   22.5609 C.ar    1  <1>         0.1206
     24 C20        33.6434   -3.7091   23.7743 C.ar    1  <1>        -0.0193
     25 C21        32.9678   -3.4129   24.9581 C.ar    1  <1>        -0.0475
     26 O4         33.7981   -3.5521   21.3977 O.3     1  <1>        -0.4907
     27 C22        33.1467   -3.2026   20.1835 C.3     1  <1>         0.1022
     28 C23        33.8957   -3.8427   19.0255 C.3     1  <1>         0.0331
     29 N1         35.3098   -3.4697   19.0560 N.3     1  <1>        -0.2991
     30 C24        36.0368   -4.1210   17.9573 C.3     1  <1>        -0.0010
     31 C25        37.5272   -3.7805   18.0037 C.3     1  <1>        -0.0402
     32 C26        37.7524   -2.2728   17.9870 C.3     1  <1>        -0.0507
     33 C27        36.9289   -1.5991   19.0787 C.3     1  <1>        -0.0402
     34 C28        35.4574   -2.0087   18.9982 C.3     1  <1>        -0.0010
     35 H1         34.0485   -2.4985   26.0747 H       1  <1>         0.0625
     36 H2         36.2762   -1.7258   26.7803 H       1  <1>         0.0654
     37 H3         36.6695    0.7517   29.2897 H       1  <1>         0.2921
     38 H4         34.4883    1.2318   29.3419 H       1  <1>         0.0665
     39 H5         29.1622    1.3702   26.6490 H       1  <1>         0.0625
     40 H6         26.7021    1.4425   26.6831 H       1  <1>         0.0654
     41 H7         24.8437    0.4729   27.3856 H       1  <1>         0.2921
     42 H8         26.6162   -2.2200   28.9439 H       1  <1>         0.0654
     43 H9         29.0765   -2.3024   28.9138 H       1  <1>         0.0625
     44 H10        30.3660   -1.6422   23.6583 H       1  <1>         0.0626
     45 H11        31.5620   -2.1680   21.5671 H       1  <1>         0.0654
     46 H12        34.5617   -4.2890   23.8100 H       1  <1>         0.0654
     47 H13        33.3695   -3.7665   25.9043 H       1  <1>         0.0626
     48 H14        32.1126   -3.5602   20.2299 H       1  <1>         0.0709
     49 H15        33.1416   -2.1110   20.0956 H       1  <1>         0.0709
     50 H16        33.7933   -4.9329   19.0705 H       1  <1>         0.0460
     51 H17        33.4504   -3.5285   18.0750 H       1  <1>         0.0460
     52 H18        35.9286   -5.2092   18.0402 H       1  <1>         0.0427
     53 H19        35.6193   -3.8252   16.9859 H       1  <1>         0.0427
     54 H20        37.9741   -4.2075   18.9104 H       1  <1>         0.0278
     55 H21        38.0381   -4.2393   17.1498 H       1  <1>         0.0278
     56 H22        38.8159   -2.0495   18.1258 H       1  <1>         0.0266
     57 H23        37.4634   -1.8697   17.0087 H       1  <1>         0.0266
     58 H24        37.3320   -1.8737   20.0618 H       1  <1>         0.0278
     59 H25        37.0162   -0.5102   18.9899 H       1  <1>         0.0278
     60 H26        35.0127   -1.6101   18.0767 H       1  <1>         0.0427
     61 H27        34.9250   -1.5522   19.8414 H       1  <1>         0.0427
@<TRIPOS>BOND
     1     1     2   ar
     2     1    16   ar
     3     1    35    1
     4     2     3   ar
     5     2    36    1
     6     3     4    1
     7     3     5   ar
     8     4    37    1
     9     5     6   ar
    10     5    38    1
    11     6     7    1
    12     6    16   ar
    13     7     8    1
    14     8     9    1
    15     8    17    2
    16     9    10   ar
    17     9    15   ar
    18    10    11   ar
    19    10    39    1
    20    11    12   ar
    21    11    40    1
    22    12    13    1
    23    12    14   ar
    24    13    41    1
    25    14    15   ar
    26    14    42    1
    27    15    43    1
    28    16    17    1
    29    17    18    1
    30    18    19    2
    31    18    20    1
    32    20    21   ar
    33    20    25   ar
    34    21    22   ar
    35    21    44    1
    36    22    23   ar
    37    22    45    1
    38    23    24   ar
    39    23    26    1
    40    24    25   ar
    41    24    46    1
    42    25    47    1
    43    26    27    1
    44    27    28    1
    45    27    48    1
    46    27    49    1
    47    28    29    1
    48    28    50    1
    49    28    51    1
    50    29    30    1
    51    29    34    1
    52    30    31    1
    53    30    52    1
    54    30    53    1
    55    31    32    1
    56    31    54    1
    57    31    55    1
    58    32    33    1
    59    32    56    1
    60    32    57    1
    61    33    34    1
    62    33    58    1
    63    33    59    1
    64    34    60    1
    65    34    61    1
@<TRIPOS>SUBSTRUCTURE
     1 <1>         1 TEMP              0 ****  ****    0 ROOT


@<TRIPOS>MOLECULE
ER1_ERRpdb_raloxifen
 61 65 1 0 0
SMALL
USER_CHARGES

mmff94s_NoEstat = 78.58
@<TRIPOS>ATOM
      1 C1         29.1534   -2.8660   26.5604 C.ar    1  <1>        -0.0494
      2 C2         27.7594   -2.8173   26.6433 C.ar    1  <1>        -0.0195
      3 C3         27.1245   -1.6715   27.1010 C.ar    1  <1>         0.1180
      4 O1         25.7645   -1.6351   27.1766 O.3     1  <1>        -0.5067
      5 C4         27.8659   -0.5522   27.4844 C.ar    1  <1>        -0.0058
      6 C5         29.2711   -0.6049   27.3997 C.ar    1  <1>         0.0241
      7 S1         30.3858    0.6436   27.8145 S.3     1  <1>        -0.0874
      8 C6         31.7308   -0.3159   27.3949 C.2     1  <1>         0.0313
      9 C7         33.0512    0.2536   27.5473 C.ar    1  <1>        -0.0104
     10 C8         33.7991   -0.0245   28.6891 C.ar    1  <1>        -0.0501
     11 C9         35.0734    0.5241   28.8356 C.ar    1  <1>        -0.0196
     12 C10        35.5963    1.3490   27.8397 C.ar    1  <1>         0.1169
     13 O2         36.8397    1.8845   27.9826 O.3     1  <1>        -0.5068
     14 C11        34.8450    1.6258   26.6976 C.ar    1  <1>        -0.0196
     15 C12        33.5708    1.0771   26.5512 C.ar    1  <1>        -0.0501
     16 C13        29.9335   -1.7478   26.9420 C.ar    1  <1>         0.0008
     17 C14        31.3342   -1.5371   26.9561 C.2     1  <1>         0.0447
     18 C15        32.3187   -2.5537   26.5313 C.2     1  <1>         0.1948
     19 O3         32.9576   -3.1999   27.3758 O.2     1  <1>        -0.2866
     20 C16        32.5492   -2.8280   25.1220 C.ar    1  <1>         0.0225
     21 C17        31.6662   -2.3339   24.1617 C.ar    1  <1>        -0.0475
     22 C18        31.8872   -2.5969   22.8099 C.ar    1  <1>        -0.0193
     23 C19        32.9898   -3.3523   22.4270 C.ar    1  <1>         0.1206
     24 C20        33.8741   -3.8481   23.3780 C.ar    1  <1>        -0.0193
     25 C21        33.6531   -3.5852   24.7299 C.ar    1  <1>        -0.0475
     26 O4         33.2061   -3.6116   21.0989 O.3     1  <1>        -0.4907
     27 C22        32.2085   -3.1683   20.1883 C.3     1  <1>         0.1022
     28 C23        32.7482   -3.2950   18.7726 C.3     1  <1>         0.0331
     29 N1         34.1438   -2.8612   18.7112 N.3     1  <1>        -0.2991
     30 C24        34.6182   -2.8518   17.3203 C.3     1  <1>        -0.0010
     31 C25        36.0912   -2.4475   17.2426 C.3     1  <1>        -0.0402
     32 C26        36.3317   -1.0975   17.9088 C.3     1  <1>        -0.0507
     33 C27        35.7618   -1.0922   19.3227 C.3     1  <1>        -0.0402
     34 C28        34.2991   -1.5395   19.3344 C.3     1  <1>        -0.0010
     35 H1         29.6322   -3.7732   26.1999 H       1  <1>         0.0625
     36 H2         27.1768   -3.6855   26.3462 H       1  <1>         0.0654
     37 H3         25.4173   -2.5298   27.0095 H       1  <1>         0.2921
     38 H4         27.3650    0.3437   27.8414 H       1  <1>         0.0665
     39 H5         33.4056   -0.6654   29.4743 H       1  <1>         0.0625
     40 H6         35.6538    0.3042   29.7275 H       1  <1>         0.0654
     41 H7         37.1279    1.7684   28.9064 H       1  <1>         0.2921
     42 H8         35.2466    2.2674   25.9180 H       1  <1>         0.0654
     43 H9         32.9978    1.3010   25.6544 H       1  <1>         0.0625
     44 H10        30.8027   -1.7428   24.4558 H       1  <1>         0.0626
     45 H11        31.1955   -2.2097   22.0666 H       1  <1>         0.0654
     46 H12        34.7357   -4.4388   23.0791 H       1  <1>         0.0654
     47 H13        34.3475   -3.9753   25.4697 H       1  <1>         0.0626
     48 H14        31.3147   -3.7859   20.3263 H       1  <1>         0.0709
     49 H15        31.9616   -2.1280   20.4255 H       1  <1>         0.0709
     50 H16        32.6615   -4.3325   18.4305 H       1  <1>         0.0460
     51 H17        32.1424   -2.6911   18.0878 H       1  <1>         0.0460
     52 H18        34.5124   -3.8550   16.8898 H       1  <1>         0.0427
     53 H19        34.0139   -2.1693   16.7083 H       1  <1>         0.0427
     54 H20        36.7088   -3.2120   17.7306 H       1  <1>         0.0278
     55 H21        36.4078   -2.4032   16.1944 H       1  <1>         0.0278
     56 H22        37.4044   -0.8762   17.9344 H       1  <1>         0.0266
     57 H23        35.8534   -0.3067   17.3180 H       1  <1>         0.0266
     58 H24        36.3548   -1.7628   19.9576 H       1  <1>         0.0278
     59 H25        35.8460   -0.0875   19.7522 H       1  <1>         0.0278
     60 H26        33.6802   -0.7928   18.8196 H       1  <1>         0.0427
     61 H27        33.9593   -1.5826   20.3764 H       1  <1>         0.0427
@<TRIPOS>BOND
     1     1     2   ar
     2     1    16   ar
     3     1    35    1
     4     2     3   ar
     5     2    36    1
     6     3     4    1
     7     3     5   ar
     8     4    37    1
     9     5     6   ar
    10     5    38    1
    11     6     7    1
    12     6    16   ar
    13     7     8    1
    14     8     9    1
    15     8    17    2
    16     9    10   ar
    17     9    15   ar
    18    10    11   ar
    19    10    39    1
    20    11    12   ar
    21    11    40    1
    22    12    13    1
    23    12    14   ar
    24    13    41    1
    25    14    15   ar
    26    14    42    1
    27    15    43    1
    28    16    17    1
    29    17    18    1
    30    18    19    2
    31    18    20    1
    32    20    21   ar
    33    20    25   ar
    34    21    22   ar
    35    21    44    1
    36    22    23   ar
    37    22    45    1
    38    23    24   ar
    39    23    26    1
    40    24    25   ar
    41    24    46    1
    42    25    47    1
    43    26    27    1
    44    27    28    1
    45    27    48    1
    46    27    49    1
    47    28    29    1
    48    28    50    1
    49    28    51    1
    50    29    30    1
    51    29    34    1
    52    30    31    1
    53    30    52    1
    54    30    53    1
    55    31    32    1
    56    31    54    1
    57    31    55    1
    58    32    33    1
    59    32    56    1
    60    32    57    1
    61    33    34    1
    62    33    58    1
    63    33    59    1
    64    34    60    1
    65    34    61    1
@<TRIPOS>SUBSTRUCTURE
     1 <1>         1 TEMP              0 ****  ****    0 ROOT



@<TRIPOS>MOLECULE
ER1_ERRpdb_raloxifen
 61 65 1 0 0
SMALL
USER_CHARGES

mmff94s_NoEstat = 78.58
@<TRIPOS>ATOM
      1 C1         28.9662   -2.4289   26.3126 C.ar    1  <1>        -0.0494
      2 C2         27.5802   -2.2529   26.2974 C.ar    1  <1>        -0.0195
      3 C3         27.0216   -1.0538   26.7165 C.ar    1  <1>         0.1180
      4 O1         25.6687   -0.8932   26.6962 O.3     1  <1>        -0.5067
      5 C4         27.8330   -0.0070   27.1583 C.ar    1  <1>        -0.0058
      6 C5         29.2301   -0.1880   27.1725 C.ar    1  <1>         0.0241
      7 S1         30.4219    0.9534   27.6728 S.3     1  <1>        -0.0874
      8 C6         31.7000   -0.1251   27.3430 C.2     1  <1>         0.0313
      9 C7         33.0527    0.3212   27.5917 C.ar    1  <1>        -0.0104
     10 C8         33.6213    0.1438   28.8509 C.ar    1  <1>        -0.0501
     11 C9         34.9267    0.5735   29.0905 C.ar    1  <1>        -0.0196
     12 C10        35.6601    1.1792   28.0701 C.ar    1  <1>         0.1169
     13 O2         36.9339    1.5986   28.3039 O.3     1  <1>        -0.5068
     14 C11        35.0881    1.3555   26.8103 C.ar    1  <1>        -0.0196
     15 C12        33.7826    0.9258   26.5708 C.ar    1  <1>        -0.0501
     16 C13        29.8162   -1.3867   26.7554 C.ar    1  <1>         0.0008
     17 C14        31.2257   -1.3050   26.8695 C.2     1  <1>         0.0447
     18 C15        32.1410   -2.4075   26.5087 C.2     1  <1>         0.1948
     19 O3         32.7140   -3.0620   27.3930 O.2     1  <1>        -0.2866
     20 C16        32.3781   -2.7570   25.1173 C.ar    1  <1>         0.0225
     21 C17        31.6470   -2.1321   24.1068 C.ar    1  <1>        -0.0475
     22 C18        31.8744   -2.4673   22.7721 C.ar    1  <1>        -0.0193
     23 C19        32.8313   -3.4252   22.4564 C.ar    1  <1>         0.1206
     24 C20        33.5637   -4.0523   23.4578 C.ar    1  <1>        -0.0193
     25 C21        33.3363   -3.7171   24.7926 C.ar    1  <1>        -0.0475
     26 O4         33.0537   -3.7552   21.1452 O.3     1  <1>        -0.4907
     27 C22        33.6633   -2.7637   20.3290 C.3     1  <1>         0.1022
     28 C23        34.0772   -3.4015   19.0124 C.3     1  <1>         0.0331
     29 N1         34.8391   -2.4555   18.1973 N.3     1  <1>        -0.2991
     30 C24        36.0599   -2.0378   18.9011 C.3     1  <1>        -0.0010
     31 C25        36.8439   -1.0105   18.0832 C.3     1  <1>        -0.0402
     32 C26        37.1722   -1.5423   16.6927 C.3     1  <1>        -0.0507
     33 C27        35.9099   -2.0488   16.0044 C.3     1  <1>        -0.0402
     34 C28        35.1554   -3.0434   16.8882 C.3     1  <1>        -0.0010
     35 H1         29.3846   -3.3761   25.9810 H       1  <1>         0.0625
     36 H2         26.9433   -3.0642   25.9544 H       1  <1>         0.0654
     37 H3         25.4542   -0.0001   27.0209 H       1  <1>         0.2921
     38 H4         27.3921    0.9310   27.4849 H       1  <1>         0.0665
     39 H5         33.0629   -0.3262   29.6568 H       1  <1>         0.0625
     40 H6         35.3668    0.4328   30.0741 H       1  <1>         0.0654
     41 H7         37.1546    1.4286   29.2378 H       1  <1>         0.2921
     42 H8         35.6539    1.8263   26.0110 H       1  <1>         0.0654
     43 H9         33.3509    1.0689   25.5830 H       1  <1>         0.0625
     44 H10        30.8978   -1.3825   24.3482 H       1  <1>         0.0626
     45 H11        31.3014   -1.9774   21.9895 H       1  <1>         0.0654
     46 H12        34.3114   -4.8012   23.2114 H       1  <1>         0.0654
     47 H13        33.9116   -4.2105   25.5718 H       1  <1>         0.0626
     48 H14        32.9407   -1.9570   20.1663 H       1  <1>         0.0709
     49 H15        34.5306   -2.3614   20.8631 H       1  <1>         0.0709
     50 H16        34.6750   -4.3000   19.2033 H       1  <1>         0.0460
     51 H17        33.1885   -3.7315   18.4629 H       1  <1>         0.0460
     52 H18        35.7916   -1.5822   19.8619 H       1  <1>         0.0427
     53 H19        36.6987   -2.9040   19.1183 H       1  <1>         0.0427
     54 H20        36.2578   -0.0871   17.9932 H       1  <1>         0.0278
     55 H21        37.7706   -0.7502   18.6069 H       1  <1>         0.0278
     56 H22        37.6401   -0.7562   16.0898 H       1  <1>         0.0266
     57 H23        37.8980   -2.3605   16.7750 H       1  <1>         0.0266
     58 H24        35.2564   -1.1989   15.7694 H       1  <1>         0.0278
     59 H25        36.1722   -2.5235   15.0521 H       1  <1>         0.0278
     60 H26        35.7513   -3.9578   17.0074 H       1  <1>         0.0427
     61 H27        34.2261   -3.3237   16.3774 H       1  <1>         0.0427
@<TRIPOS>BOND
     1     1     2   ar
     2     1    16   ar
     3     1    35    1
     4     2     3   ar
     5     2    36    1
     6     3     4    1
     7     3     5   ar
     8     4    37    1
     9     5     6   ar
    10     5    38    1
    11     6     7    1
    12     6    16   ar
    13     7     8    1
    14     8     9    1
    15     8    17    2
    16     9    10   ar
    17     9    15   ar
    18    10    11   ar
    19    10    39    1
    20    11    12   ar
    21    11    40    1
    22    12    13    1
    23    12    14   ar
    24    13    41    1
    25    14    15   ar
    26    14    42    1
    27    15    43    1
    28    16    17    1
    29    17    18    1
    30    18    19    2
    31    18    20    1
    32    20    21   ar
    33    20    25   ar
    34    21    22   ar
    35    21    44    1
    36    22    23   ar
    37    22    45    1
    38    23    24   ar
    39    23    26    1
    40    24    25   ar
    41    24    46    1
    42    25    47    1
    43    26    27    1
    44    27    28    1
    45    27    48    1
    46    27    49    1
    47    28    29    1
    48    28    50    1
    49    28    51    1
    50    29    30    1
    51    29    34    1
    52    30    31    1
    53    30    52    1
    54    30    53    1
    55    31    32    1
    56    31    54    1
    57    31    55    1
    58    32    33    1
    59    32    56    1
    60    32    57    1
    61    33    34    1
    62    33    58    1
    63    33    59    1
    64    34    60    1
    65    34    61    1
@<TRIPOS>SUBSTRUCTURE
     1 <1>         1 TEMP              0 ****  ****    0 ROOT



@<TRIPOS>MOLECULE
ER1_ERRpdb_raloxifen
 61 65 1 0 0
SMALL
USER_CHARGES

mmff94s_NoEstat = 78.58
@<TRIPOS>ATOM
      1 C1         28.9702   -2.8560   26.6219 C.ar    1  <1>        -0.0494
      2 C2         27.5765   -2.7662   26.6635 C.ar    1  <1>        -0.0195
      3 C3         26.9624   -1.6062   27.1140 C.ar    1  <1>         0.1180
      4 O1         25.6025   -1.5297   27.1492 O.3     1  <1>        -0.5067
      5 C4         27.7249   -0.5136   27.5313 C.ar    1  <1>        -0.0058
      6 C5         29.1299   -0.6077   27.4881 C.ar    1  <1>         0.0241
      7 S1         30.2683    0.6026   27.9493 S.3     1  <1>        -0.0874
      8 C6         31.5961   -0.3929   27.5601 C.2     1  <1>         0.0313
      9 C7         32.9277    0.1351   27.7580 C.ar    1  <1>        -0.0104
     10 C8         33.5999   -0.1083   28.9535 C.ar    1  <1>        -0.0501
     11 C9         34.8849    0.4002   29.1440 C.ar    1  <1>        -0.0196
     12 C10        35.4943    1.1505   28.1382 C.ar    1  <1>         0.1169
     13 O2         36.7483    1.6468   28.3240 O.3     1  <1>        -0.5068
     14 C11        34.8188    1.3926   26.9422 C.ar    1  <1>        -0.0196
     15 C12        33.5337    0.8840   26.7519 C.ar    1  <1>        -0.0501
     16 C13        29.7715   -1.7656   27.0385 C.ar    1  <1>         0.0008
     17 C14        31.1767   -1.5973   27.0967 C.2     1  <1>         0.0447
     18 C15        32.1430   -2.6390   26.6909 C.2     1  <1>         0.1948
     19 O3         32.7738   -3.2774   27.5472 O.2     1  <1>        -0.2866
     20 C16        32.3642   -2.9472   25.2871 C.ar    1  <1>         0.0225
     21 C17        31.5325   -2.3954   24.3124 C.ar    1  <1>        -0.0475
     22 C18        31.7446   -2.6910   22.9659 C.ar    1  <1>        -0.0193
     23 C19        32.7870   -3.5363   22.6027 C.ar    1  <1>         0.1206
     24 C20        33.6198   -4.0899   23.5682 C.ar    1  <1>        -0.0193
     25 C21        33.4077   -3.7944   24.9148 C.ar    1  <1>        -0.0475
     26 O4         32.9945   -3.8274   21.2799 O.3     1  <1>        -0.4907
     27 C22        32.9249   -2.7410   20.3657 C.3     1  <1>         0.1022
     28 C23        32.9029   -3.2945   18.9498 C.3     1  <1>         0.0331
     29 N1         34.1112   -4.0739   18.6812 N.3     1  <1>        -0.2991
     30 C24        34.0845   -4.6077   17.3120 C.3     1  <1>        -0.0010
     31 C25        35.3182   -5.4666   17.0307 C.3     1  <1>        -0.0402
     32 C26        36.6048   -4.6898   17.2870 C.3     1  <1>        -0.0507
     33 C27        36.5853   -4.0717   18.6803 C.3     1  <1>        -0.0402
     34 C28        35.3112   -3.2570   18.9094 C.3     1  <1>        -0.0010
     35 H1         29.4325   -3.7737   26.2663 H       1  <1>         0.0625
     36 H2         26.9776   -3.6135   26.3399 H       1  <1>         0.0654
     37 H3         25.2327   -2.3242   26.7238 H       1  <1>         0.2921
     38 H4         27.2405    0.3936   27.8825 H       1  <1>         0.0665
     39 H5         33.1386   -0.6909   29.7472 H       1  <1>         0.0625
     40 H6         35.4061    0.2077   30.0779 H       1  <1>         0.0654
     41 H7         37.0123    2.1409   27.5265 H       1  <1>         0.2921
     42 H8         35.2878    1.9759   26.1546 H       1  <1>         0.0654
     43 H9         33.0204    1.0800   25.8134 H       1  <1>         0.0625
     44 H10        30.7163   -1.7340   24.5911 H       1  <1>         0.0626
     45 H11        31.0931   -2.2586   22.2114 H       1  <1>         0.0654
     46 H12        34.4343   -4.7509   23.2847 H       1  <1>         0.0654
     47 H13        34.0617   -4.2300   25.6659 H       1  <1>         0.0626
     48 H14        32.0169   -2.1668   20.5787 H       1  <1>         0.0709
     49 H15        33.7972   -2.0984   20.5253 H       1  <1>         0.0709
     50 H16        32.0132   -3.9181   18.8055 H       1  <1>         0.0460
     51 H17        32.8251   -2.4722   18.2298 H       1  <1>         0.0460
     52 H18        33.1920   -5.2313   17.1789 H       1  <1>         0.0427
     53 H19        34.0250   -3.7930   16.5786 H       1  <1>         0.0427
     54 H20        35.2972   -6.3605   17.6669 H       1  <1>         0.0278
     55 H21        35.2978   -5.8141   15.9917 H       1  <1>         0.0278
     56 H22        37.4715   -5.3515   17.1810 H       1  <1>         0.0266
     57 H23        36.7105   -3.8973   16.5360 H       1  <1>         0.0266
     58 H24        36.6514   -4.8673   19.4335 H       1  <1>         0.0278
     59 H25        37.4643   -3.4309   18.8138 H       1  <1>         0.0278
     60 H26        35.3120   -2.3769   18.2526 H       1  <1>         0.0427
     61 H27        35.3156   -2.8922   19.9438 H       1  <1>         0.0427
@<TRIPOS>BOND
     1     1     2   ar
     2     1    16   ar
     3     1    35    1
     4     2     3   ar
     5     2    36    1
     6     3     4    1
     7     3     5   ar
     8     4    37    1
     9     5     6   ar
    10     5    38    1
    11     6     7    1
    12     6    16   ar
    13     7     8    1
    14     8     9    1
    15     8    17    2
    16     9    10   ar
    17     9    15   ar
    18    10    11   ar
    19    10    39    1
    20    11    12   ar
    21    11    40    1
    22    12    13    1
    23    12    14   ar
    24    13    41    1
    25    14    15   ar
    26    14    42    1
    27    15    43    1
    28    16    17    1
    29    17    18    1
    30    18    19    2
    31    18    20    1
    32    20    21   ar
    33    20    25   ar
    34    21    22   ar
    35    21    44    1
    36    22    23   ar
    37    22    45    1
    38    23    24   ar
    39    23    26    1
    40    24    25   ar
    41    24    46    1
    42    25    47    1
    43    26    27    1
    44    27    28    1
    45    27    48    1
    46    27    49    1
    47    28    29    1
    48    28    50    1
    49    28    51    1
    50    29    30    1
    51    29    34    1
    52    30    31    1
    53    30    52    1
    54    30    53    1
    55    31    32    1
    56    31    54    1
    57    31    55    1
    58    32    33    1
    59    32    56    1
    60    32    57    1
    61    33    34    1
    62    33    58    1
    63    33    59    1
    64    34    60    1
    65    34    61    1
@<TRIPOS>SUBSTRUCTURE
     1 <1>         1 TEMP              0 ****  ****    0 ROOT




@<TRIPOS>MOLECULE
ERinh5_LY-326315
 66 70 1 0 0
SMALL
USER_CHARGES

mmff94s_NoEstat = 100.05
@<TRIPOS>ATOM
      1 C1         31.6784   -3.1461   21.3312 C.ar    1  <1>        -0.0533
      2 C2         34.8140   -4.0564   23.0975 C.ar    1  <1>        -0.0503
      3 C3         32.0390   -3.3718   20.0025 C.ar    1  <1>        -0.0532
      4 C4         34.2056   -3.0143   17.5472 C.ar    1  <1>        -0.0506
      5 C5         33.4402   -5.2985   17.7281 C.ar    1  <1>        -0.0506
      6 C6         36.0373   -2.1793   19.6477 C.ar    1  <1>        -0.0548
      7 C7         37.7459   -3.8394   19.2464 C.ar    1  <1>        -0.0548
      8 C8         34.4533   -3.8308   24.4263 C.ar    1  <1>        -0.0196
      9 C9         34.5333   -3.2302   16.2087 C.ar    1  <1>        -0.0196
     10 C10        33.7680   -5.5145   16.3895 C.ar    1  <1>        -0.0196
     11 C11        36.8504   -1.2034   19.0716 C.ar    1  <1>        -0.0197
     12 C12        38.5591   -2.8633   18.6703 C.ar    1  <1>        -0.0197
     13 C13        32.2499   -3.1492   23.7137 C.ar    1  <1>        -0.0125
     14 C14        32.5956   -3.3710   22.3707 C.ar    1  <1>        -0.0141
     15 C15        33.8968   -3.8315   22.0581 C.ar    1  <1>        -0.0136
     16 C16        33.6600   -4.0490   18.3035 C.ar    1  <1>        -0.0174
     17 C17        33.3187   -3.8245   19.6951 C.ar    1  <1>        -0.0138
     18 C18        36.4849   -3.4975   19.7351 C.ar    1  <1>        -0.0428
     19 C19        34.2302   -4.0490   20.7183 C.ar    1  <1>        -0.0277
     20 C20        34.3145   -4.4803   15.6297 C.ar    1  <1>         0.1169
     21 C21        38.1058   -1.5520   18.5868 C.ar    1  <1>         0.1204
     22 C22        33.1739   -3.3782   24.7337 C.ar    1  <1>         0.1175
     23 C23        36.3589    2.8986   13.6781 C.3     1  <1>        -0.0564
     24 C24        35.3588    2.5690   14.7811 C.3     1  <1>        -0.0681
     25 C25        37.0327    1.6372   13.1486 C.3     1  <1>        -0.0681
     26 C26        35.9974    1.7521   15.8952 C.3     1  <1>        -0.0905
     27 C27        37.6650    0.8232   14.2685 C.3     1  <1>        -0.0905
     28 C28        35.6158   -4.5410   20.3509 C.3     1  <1>        -0.0013
     29 C29        37.1607   -0.3995   16.3824 C.3     1  <1>        -0.0555
     30 C30        38.2800    0.3103   17.1180 C.3     1  <1>         0.0750
     31 N1         36.6188    0.5057   15.3105 N.4     1  <1>         0.3819
     32 O1         34.6342   -4.6903   14.3235 O.3     1  <1>        -0.5068
     33 O2         32.8231   -3.1590   26.0304 O.3     1  <1>        -0.5067
     34 O3         38.9046   -0.5931   18.0205 O.3     1  <1>        -0.4938
     35 H1         30.6728   -2.7917   21.5486 H       1  <1>         0.0624
     36 H2         35.8232   -4.4102   22.9002 H       1  <1>         0.0625
     37 H3         31.3071   -3.1883   19.2196 H       1  <1>         0.0624
     38 H4         34.3824   -2.0346   17.9845 H       1  <1>         0.0625
     39 H5         33.0152   -6.1153   18.3067 H       1  <1>         0.0625
     40 H6         35.0564   -1.9038   20.0262 H       1  <1>         0.0622
     41 H7         38.1029   -4.8638   19.3110 H       1  <1>         0.0622
     42 H8         35.1766   -4.0108   25.2169 H       1  <1>         0.0654
     43 H9         34.9594   -2.4211   15.6219 H       1  <1>         0.0654
     44 H10        33.5960   -6.4908   15.9443 H       1  <1>         0.0654
     45 H11        36.4957   -0.1785   19.0060 H       1  <1>         0.0654
     46 H12        39.5406   -3.1357   18.2917 H       1  <1>         0.0654
     47 H13        31.2530   -2.7953   23.9712 H       1  <1>         0.0660
     48 H14        35.8506    3.4197   12.8592 H       1  <1>         0.0264
     49 H15        37.1215    3.5832   14.0697 H       1  <1>         0.0264
     50 H16        34.9482    3.4965   15.1952 H       1  <1>         0.0247
     51 H17        34.5160    2.0117   14.3534 H       1  <1>         0.0247
     52 H18        36.2918    1.0230   12.6216 H       1  <1>         0.0247
     53 H19        37.7995    1.9099   12.4150 H       1  <1>         0.0247
     54 H20        36.7900    2.3072   16.4090 H       1  <1>         0.0059
     55 H21        35.2448    1.4293   16.6221 H       1  <1>         0.0059
     56 H22        38.0471   -0.1303   13.8904 H       1  <1>         0.0059
     57 H23        38.4733    1.3702   14.7667 H       1  <1>         0.0059
     58 H24        35.5185   -5.4103   19.6770 H       1  <1>         0.0362
     59 H25        36.0954   -4.9618   21.2521 H       1  <1>         0.0362
     60 H26        36.3198   -0.6357   17.0406 H       1  <1>         0.0091
     61 H27        37.5159   -1.3031   15.8800 H       1  <1>         0.0091
     62 H28        39.0364    0.6510   16.4040 H       1  <1>         0.0677
     63 H29        37.9109    1.1753   17.6788 H       1  <1>         0.0677
     64 H30        35.8691   -0.0222   14.8441 H       1  <1>        -0.0817
     65 H31        35.1734   -3.9427   14.0071 H       1  <1>         0.2921
     66 H32        33.5955   -3.3317   26.5991 H       1  <1>         0.2921
@<TRIPOS>BOND
     1     1     3   ar
     2     1    14   ar
     3     1    35    1
     4     2     8   ar
     5     2    15   ar
     6     2    36    1
     7     3    17   ar
     8     3    37    1
     9     4     9   ar
    10     4    16   ar
    11     4    38    1
    12     5    10   ar
    13     5    16   ar
    14     5    39    1
    15     6    11   ar
    16     6    18   ar
    17     6    40    1
    18     7    12   ar
    19     7    18   ar
    20     7    41    1
    21     8    22   ar
    22     8    42    1
    23     9    20   ar
    24     9    43    1
    25    10    20   ar
    26    10    44    1
    27    11    21   ar
    28    11    45    1
    29    12    21   ar
    30    12    46    1
    31    13    14   ar
    32    13    22   ar
    33    13    47    1
    34    14    15   ar
    35    15    19   ar
    36    16    17    1
    37    17    19   ar
    38    18    28    1
    39    19    28    1
    40    20    32    1
    41    21    34    1
    42    22    33    1
    43    23    24    1
    44    23    25    1
    45    23    48    1
    46    23    49    1
    47    24    26    1
    48    24    50    1
    49    24    51    1
    50    25    27    1
    51    25    52    1
    52    25    53    1
    53    26    31    1
    54    26    54    1
    55    26    55    1
    56    27    31    1
    57    27    56    1
    58    27    57    1
    59    28    58    1
    60    28    59    1
    61    29    30    1
    62    29    31    1
    63    29    60    1
    64    29    61    1
    65    30    34    1
    66    30    62    1
    67    30    63    1
    68    31    64    1
    69    32    65    1
    70    33    66    1
@<TRIPOS>SUBSTRUCTURE
     1 <1>         1 TEMP              0 ****  ****    0 ROOT



@<TRIPOS>MOLECULE
ERinh5_LY-326315
 66 70 1 0 0
SMALL
USER_CHARGES

mmff94s_NoEstat = 100.05
@<TRIPOS>ATOM
      1 C1         31.1481   -3.0438   20.8084 C.ar    1  <1>        -0.0533
      2 C2         34.2277   -3.9999   22.6475 C.ar    1  <1>        -0.0503
      3 C3         31.5094   -3.3479   19.4956 C.ar    1  <1>        -0.0532
      4 C4         33.7090   -3.2002   17.0481 C.ar    1  <1>        -0.0506
      5 C5         32.8455   -5.4388   17.3296 C.ar    1  <1>        -0.0506
      6 C6         35.7152   -2.3238   19.3230 C.ar    1  <1>        -0.0548
      7 C7         37.4241   -3.9294   19.9043 C.ar    1  <1>        -0.0548
      8 C8         33.8663   -3.6959   23.9603 C.ar    1  <1>        -0.0196
      9 C9         34.0379   -3.4935   15.7247 C.ar    1  <1>        -0.0196
     10 C10        33.1745   -5.7323   16.0062 C.ar    1  <1>        -0.0196
     11 C11        36.6963   -1.3539   19.1180 C.ar    1  <1>        -0.0197
     12 C12        38.4054   -2.9594   19.6993 C.ar    1  <1>        -0.0197
     13 C13        31.6997   -2.9570   23.1941 C.ar    1  <1>        -0.0125
     14 C14        32.0464   -3.2572   21.8666 C.ar    1  <1>        -0.0141
     15 C15        33.3293   -3.7865   21.5893 C.ar    1  <1>        -0.0136
     16 C16        33.1137   -4.1735   17.8471 C.ar    1  <1>        -0.0174
     17 C17        32.7711   -3.8685   19.2230 C.ar    1  <1>        -0.0138
     18 C18        36.0790   -3.6118   19.7161 C.ar    1  <1>        -0.0428
     19 C19        33.6640   -4.0819   20.2649 C.ar    1  <1>        -0.0277
     20 C20        33.7707   -4.7596   15.2037 C.ar    1  <1>         0.1169
     21 C21        38.0348   -1.6783   19.3076 C.ar    1  <1>         0.1204
     22 C22        32.6048   -3.1756   24.2330 C.ar    1  <1>         0.1175
     23 C23        36.4686    2.0815   13.8901 C.3     1  <1>        -0.0564
     24 C24        37.2590    0.8681   13.4121 C.3     1  <1>        -0.0681
     25 C25        37.0878    2.6836   15.1469 C.3     1  <1>        -0.0681
     26 C26        37.4283   -0.1652   14.5166 C.3     1  <1>        -0.0905
     27 C27        37.2582    1.6438   16.2453 C.3     1  <1>        -0.0905
     28 C28        35.0302   -4.6488   19.9352 C.3     1  <1>        -0.0013
     29 C29        38.3730   -0.5171   16.7978 C.3     1  <1>        -0.0555
     30 C30        38.7628    0.2153   18.0664 C.3     1  <1>         0.0750
     31 N1         38.0718    0.4857   15.7182 N.4     1  <1>         0.3819
     32 O1         34.0918   -5.0452   13.9122 O.3     1  <1>        -0.5068
     33 O2         32.2533   -2.8799   25.5142 O.3     1  <1>        -0.5067
     34 O3         38.9988   -0.7253   19.1058 O.3     1  <1>        -0.4938
     35 H1         30.1568   -2.6373   20.9986 H       1  <1>         0.0624
     36 H2         35.2225   -4.4050   22.4774 H       1  <1>         0.0625
     37 H3         30.7923   -3.1715   18.6976 H       1  <1>         0.0624
     38 H4         33.9238   -2.2089   17.4401 H       1  <1>         0.0625
     39 H5         32.3815   -6.2083   17.9421 H       1  <1>         0.0625
     40 H6         34.6694   -2.0674   19.1744 H       1  <1>         0.0622
     41 H7         37.7165   -4.9302   20.2110 H       1  <1>         0.0622
     42 H8         34.5748   -3.8682   24.7659 H       1  <1>         0.0654
     43 H9         34.5028   -2.7322   15.1045 H       1  <1>         0.0654
     44 H10        32.9647   -6.7207   15.6062 H       1  <1>         0.0654
     45 H11        36.4065   -0.3527   18.8113 H       1  <1>         0.0654
     46 H12        39.4516   -3.2127   19.8478 H       1  <1>         0.0654
     47 H13        30.7167   -2.5494   23.4244 H       1  <1>         0.0660
     48 H14        36.4305    2.8362   13.0967 H       1  <1>         0.0264
     49 H15        35.4338    1.7834   14.0995 H       1  <1>         0.0264
     50 H16        36.7500    0.4107   12.5565 H       1  <1>         0.0247
     51 H17        38.2454    1.1929   13.0582 H       1  <1>         0.0247
     52 H18        38.0640    3.1189   14.8988 H       1  <1>         0.0247
     53 H19        36.4577    3.5026   15.5114 H       1  <1>         0.0247
     54 H20        36.4679   -0.5813   14.8404 H       1  <1>         0.0059
     55 H21        38.0895   -0.9759   14.1936 H       1  <1>         0.0059
     56 H22        37.8025    2.0621   17.0980 H       1  <1>         0.0059
     57 H23        36.2958    1.2450   16.5850 H       1  <1>         0.0059
     58 H24        34.9410   -5.3020   19.0493 H       1  <1>         0.0362
     59 H25        35.3327   -5.3412   20.7405 H       1  <1>         0.0362
     60 H26        37.4646   -1.1121   16.9280 H       1  <1>         0.0091
     61 H27        39.1879   -1.1436   16.4256 H       1  <1>         0.0091
     62 H28        39.6882    0.7762   17.9023 H       1  <1>         0.0677
     63 H29        37.9816    0.9121   18.3876 H       1  <1>         0.0677
     64 H30        38.9810    0.8600   15.4154 H       1  <1>        -0.0817
     65 H31        34.4959   -4.2568   13.5063 H       1  <1>         0.2921
     66 H32        31.5216   -2.2361   25.4994 H       1  <1>         0.2921
@<TRIPOS>BOND
     1     1     3   ar
     2     1    14   ar
     3     1    35    1
     4     2     8   ar
     5     2    15   ar
     6     2    36    1
     7     3    17   ar
     8     3    37    1
     9     4     9   ar
    10     4    16   ar
    11     4    38    1
    12     5    10   ar
    13     5    16   ar
    14     5    39    1
    15     6    11   ar
    16     6    18   ar
    17     6    40    1
    18     7    12   ar
    19     7    18   ar
    20     7    41    1
    21     8    22   ar
    22     8    42    1
    23     9    20   ar
    24     9    43    1
    25    10    20   ar
    26    10    44    1
    27    11    21   ar
    28    11    45    1
    29    12    21   ar
    30    12    46    1
    31    13    14   ar
    32    13    22   ar
    33    13    47    1
    34    14    15   ar
    35    15    19   ar
    36    16    17    1
    37    17    19   ar
    38    18    28    1
    39    19    28    1
    40    20    32    1
    41    21    34    1
    42    22    33    1
    43    23    24    1
    44    23    25    1
    45    23    48    1
    46    23    49    1
    47    24    26    1
    48    24    50    1
    49    24    51    1
    50    25    27    1
    51    25    52    1
    52    25    53    1
    53    26    31    1
    54    26    54    1
    55    26    55    1
    56    27    31    1
    57    27    56    1
    58    27    57    1
    59    28    58    1
    60    28    59    1
    61    29    30    1
    62    29    31    1
    63    29    60    1
    64    29    61    1
    65    30    34    1
    66    30    62    1
    67    30    63    1
    68    31    64    1
    69    32    65    1
    70    33    66    1
@<TRIPOS>SUBSTRUCTURE
     1 <1>         1 TEMP              0 ****  ****    0 ROOT



@<TRIPOS>MOLECULE
ERinh5_LY-326315
 66 70 1 0 0
SMALL
USER_CHARGES

mmff94s_NoEstat = 100.05
@<TRIPOS>ATOM
      1 C1         29.5290    1.2170   27.7999 C.ar    1  <1>        -0.0533
      2 C2         29.3124   -2.2473   26.4836 C.ar    1  <1>        -0.0503
      3 C3         30.9072    1.3611   27.9618 C.ar    1  <1>        -0.0532
      4 C4         33.7827    0.1602   29.0297 C.ar    1  <1>        -0.0506
      5 C5         33.9588    1.0066   26.7739 C.ar    1  <1>        -0.0506
      6 C6         31.1545   -1.9334   24.5260 C.ar    1  <1>        -0.0548
      7 C7         33.2058   -3.1699   24.8419 C.ar    1  <1>        -0.0548
      8 C8         27.9341   -2.3912   26.3216 C.ar    1  <1>        -0.0196
      9 C9         35.1553    0.3375   29.2033 C.ar    1  <1>        -0.0196
     10 C10        35.3314    1.1839   26.9474 C.ar    1  <1>        -0.0196
     11 C11        31.1507   -2.2846   23.1763 C.ar    1  <1>        -0.0197
     12 C12        33.2019   -3.5212   23.4919 C.ar    1  <1>        -0.0197
     13 C13        27.6021   -0.1440   27.1385 C.ar    1  <1>        -0.0125
     14 C14        28.9867    0.0186   27.3080 C.ar    1  <1>        -0.0141
     15 C15        29.8546   -1.0488   26.9755 C.ar    1  <1>        -0.0136
     16 C16        33.1879    0.4952   27.8154 C.ar    1  <1>        -0.0174
     17 C17        31.7607    0.3113   27.6350 C.ar    1  <1>        -0.0138
     18 C18        32.1820   -2.3761   25.3591 C.ar    1  <1>        -0.0428
     19 C19        31.2308   -0.8762   27.1480 C.ar    1  <1>        -0.0277
     20 C20        35.9298    0.8494   28.1622 C.ar    1  <1>         0.1169
     21 C21        32.1745   -3.0762   22.6682 C.ar    1  <1>         0.1204
     22 C22        27.0807   -1.3417   26.6482 C.ar    1  <1>         0.1175
     23 C23        37.9684   -3.8028   18.4907 C.3     1  <1>        -0.0564
     24 C24        38.1730   -3.3759   19.9404 C.3     1  <1>        -0.0681
     25 C25        36.6213   -3.3248   17.9592 C.3     1  <1>        -0.0681
     26 C26        37.0188   -3.8206   20.8271 C.3     1  <1>        -0.0905
     27 C27        35.4725   -3.7692   18.8533 C.3     1  <1>        -0.0905
     28 C28        32.1863   -2.0007   26.8021 C.3     1  <1>        -0.0013
     29 C29        34.5579   -3.5995   21.1668 C.3     1  <1>        -0.0555
     30 C30        33.2930   -3.0148   20.5704 C.3     1  <1>         0.0750
     31 N1         35.7209   -3.2912   20.2643 N.4     1  <1>         0.3819
     32 O1         37.2690    1.0224   28.3322 O.3     1  <1>        -0.5068
     33 O2         25.7365   -1.4832   26.4892 O.3     1  <1>        -0.5067
     34 O3         32.1705   -3.4215   21.3421 O.3     1  <1>        -0.4938
     35 H1         28.8803    2.0504   28.0622 H       1  <1>         0.0624
     36 H2         29.9441   -3.0910   26.2164 H       1  <1>         0.0625
     37 H3         31.2973    2.3009   28.3451 H       1  <1>         0.0624
     38 H4         33.1922   -0.2402   29.8504 H       1  <1>         0.0625
     39 H5         33.5078    1.2720   25.8206 H       1  <1>         0.0625
     40 H6         30.3530   -1.3141   24.9204 H       1  <1>         0.0622
     41 H7         34.0105   -3.5187   25.4835 H       1  <1>         0.0622
     42 H8         27.5332   -3.3259   25.9392 H       1  <1>         0.0654
     43 H9         35.6160    0.0745   30.1515 H       1  <1>         0.0654
     44 H10        35.9297    1.5823   26.1323 H       1  <1>         0.0654
     45 H11        30.3472   -1.9371   22.5327 H       1  <1>         0.0654
     46 H12        34.0024   -4.1395   23.0946 H       1  <1>         0.0654
     47 H13        26.9208    0.6674   27.3892 H       1  <1>         0.0660
     48 H14        38.7764   -3.4029   17.8680 H       1  <1>         0.0264
     49 H15        38.0211   -4.8964   18.4216 H       1  <1>         0.0264
     50 H16        39.1106   -3.7972   20.3196 H       1  <1>         0.0247
     51 H17        38.2733   -2.2843   19.9874 H       1  <1>         0.0247
     52 H18        36.6271   -2.2300   17.8857 H       1  <1>         0.0247
     53 H19        36.4680   -3.7108   16.9453 H       1  <1>         0.0247
     54 H20        36.9368   -4.9119   20.8781 H       1  <1>         0.0059
     55 H21        37.1245   -3.4127   21.8378 H       1  <1>         0.0059
     56 H22        34.5269   -3.3281   18.5223 H       1  <1>         0.0059
     57 H23        35.3765   -4.8603   18.8852 H       1  <1>         0.0059
     58 H24        31.9481   -2.8770   27.4305 H       1  <1>         0.0362
     59 H25        33.2032   -1.7166   27.1253 H       1  <1>         0.0362
     60 H26        34.5102   -4.6892   21.2469 H       1  <1>         0.0091
     61 H27        34.7892   -3.1563   22.1391 H       1  <1>         0.0091
     62 H28        33.3413   -1.9216   20.5952 H       1  <1>         0.0677
     63 H29        33.1479   -3.3369   19.5340 H       1  <1>         0.0677
     64 H30        35.7940   -2.2656   20.2342 H       1  <1>        -0.0817
     65 H31        37.6623    1.2914   27.4822 H       1  <1>         0.2921
     66 H32        25.3081   -0.6222   26.6481 H       1  <1>         0.2921
@<TRIPOS>BOND
     1     1     3   ar
     2     1    14   ar
     3     1    35    1
     4     2     8   ar
     5     2    15   ar
     6     2    36    1
     7     3    17   ar
     8     3    37    1
     9     4     9   ar
    10     4    16   ar
    11     4    38    1
    12     5    10   ar
    13     5    16   ar
    14     5    39    1
    15     6    11   ar
    16     6    18   ar
    17     6    40    1
    18     7    12   ar
    19     7    18   ar
    20     7    41    1
    21     8    22   ar
    22     8    42    1
    23     9    20   ar
    24     9    43    1
    25    10    20   ar
    26    10    44    1
    27    11    21   ar
    28    11    45    1
    29    12    21   ar
    30    12    46    1
    31    13    14   ar
    32    13    22   ar
    33    13    47    1
    34    14    15   ar
    35    15    19   ar
    36    16    17    1
    37    17    19   ar
    38    18    28    1
    39    19    28    1
    40    20    32    1
    41    21    34    1
    42    22    33    1
    43    23    24    1
    44    23    25    1
    45    23    48    1
    46    23    49    1
    47    24    26    1
    48    24    50    1
    49    24    51    1
    50    25    27    1
    51    25    52    1
    52    25    53    1
    53    26    31    1
    54    26    54    1
    55    26    55    1
    56    27    31    1
    57    27    56    1
    58    27    57    1
    59    28    58    1
    60    28    59    1
    61    29    30    1
    62    29    31    1
    63    29    60    1
    64    29    61    1
    65    30    34    1
    66    30    62    1
    67    30    63    1
    68    31    64    1
    69    32    65    1
    70    33    66    1
@<TRIPOS>SUBSTRUCTURE
     1 <1>         1 TEMP              0 ****  ****    0 ROOT



@<TRIPOS>MOLECULE
ERinh5_LY-326315
 66 70 1 0 0
SMALL
USER_CHARGES

mmff94s_NoEstat = 100.05
@<TRIPOS>ATOM
      1 C1         29.2107    1.6038   28.1652 C.ar    1  <1>        -0.0533
      2 C2         28.9024   -2.0010   27.3336 C.ar    1  <1>        -0.0503
      3 C3         30.5969    1.7546   28.2130 C.ar    1  <1>        -0.0532
      4 C4         33.5380    0.6767   29.2321 C.ar    1  <1>        -0.0506
      5 C5         33.5597    1.2182   26.8778 C.ar    1  <1>        -0.0506
      6 C6         30.8832   -1.7498   25.0923 C.ar    1  <1>        -0.0548
      7 C7         32.9626   -2.8960   25.5381 C.ar    1  <1>        -0.0548
      8 C8         27.5162   -2.1517   27.2856 C.ar    1  <1>        -0.0196
      9 C9         34.9193    0.8621   29.2874 C.ar    1  <1>        -0.0196
     10 C10        34.9411    1.4036   26.9331 C.ar    1  <1>        -0.0196
     11 C11        30.9670   -2.1199   23.7502 C.ar    1  <1>        -0.0197
     12 C12        33.0464   -3.2661   24.1957 C.ar    1  <1>        -0.0197
     13 C13        27.2422    0.1863   27.8206 C.ar    1  <1>        -0.0125
     14 C14        28.6353    0.3565   27.8730 C.ar    1  <1>        -0.0141
     15 C15        29.4777   -0.7535   27.6257 C.ar    1  <1>        -0.0136
     16 C16        32.8617    0.8552   28.0274 C.ar    1  <1>        -0.0174
     17 C17        31.4253    0.6630   27.9699 C.ar    1  <1>        -0.0138
     18 C18        31.8810   -2.1378   25.9865 C.ar    1  <1>        -0.0428
     19 C19        30.8626   -0.5731   27.6803 C.ar    1  <1>        -0.0277
     20 C20        35.6210    1.2256   28.1379 C.ar    1  <1>         0.1169
     21 C21        32.0481   -2.8756   23.3109 C.ar    1  <1>         0.1204
     22 C22        26.6878   -1.0603   27.5286 C.ar    1  <1>         0.1175
     23 C23        37.9229   -2.6065   19.3213 C.3     1  <1>        -0.0564
     24 C24        36.5135   -2.6034   18.7391 C.3     1  <1>        -0.0681
     25 C25        38.0487   -3.6157   20.4576 C.3     1  <1>        -0.0681
     26 C26        35.4595   -2.3860   19.8152 C.3     1  <1>        -0.0905
     27 C27        36.9889   -3.3952   21.5275 C.3     1  <1>        -0.0905
     28 C28        31.7915   -1.7423   27.4214 C.3     1  <1>        -0.0013
     29 C29        34.5275   -3.3396   21.9229 C.3     1  <1>        -0.0555
     30 C30        33.2721   -2.7918   21.2736 C.3     1  <1>         0.0750
     31 N1         35.6191   -3.4327   20.8925 N.4     1  <1>         0.3819
     32 O1         36.9689    1.4066   28.1926 O.3     1  <1>        -0.5068
     33 O2         25.3357   -1.2085   27.4810 O.3     1  <1>        -0.5067
     34 O3         32.1302   -3.2395   21.9923 O.3     1  <1>        -0.4938
     35 H1         28.5820    2.4705   28.3589 H       1  <1>         0.0624
     36 H2         29.5139   -2.8785   27.1374 H       1  <1>         0.0625
     37 H3         31.0127    2.7329   28.4420 H       1  <1>         0.0624
     38 H4         33.0048    0.3930   30.1364 H       1  <1>         0.0625
     39 H5         33.0447    1.3606   25.9307 H       1  <1>         0.0625
     40 H6         30.0370   -1.1586   25.4329 H       1  <1>         0.0622
     41 H7         33.7447   -3.2021   26.2277 H       1  <1>         0.0622
     42 H8         27.0895   -3.1246   27.0576 H       1  <1>         0.0654
     43 H9         35.4437    0.7213   30.2285 H       1  <1>         0.0654
     44 H10        35.4824    1.6859   26.0340 H       1  <1>         0.0654
     45 H11        30.1863   -1.8150   23.0588 H       1  <1>         0.0654
     46 H12        33.8916   -3.8564   23.8522 H       1  <1>         0.0654
     47 H13        26.5801    1.0300   28.0080 H       1  <1>         0.0660
     48 H14        38.6493   -2.8401   18.5350 H       1  <1>         0.0264
     49 H15        38.1655   -1.6038   19.6948 H       1  <1>         0.0264
     50 H16        36.4303   -1.8178   17.9799 H       1  <1>         0.0247
     51 H17        36.3281   -3.5576   18.2303 H       1  <1>         0.0247
     52 H18        37.9566   -4.6317   20.0535 H       1  <1>         0.0247
     53 H19        39.0452   -3.5413   20.9071 H       1  <1>         0.0247
     54 H20        35.5550   -1.4040   20.2913 H       1  <1>         0.0059
     55 H21        34.4518   -2.4971   19.4015 H       1  <1>         0.0059
     56 H22        37.0209   -4.1908   22.2787 H       1  <1>         0.0059
     57 H23        37.0994   -2.4222   22.0194 H       1  <1>         0.0059
     58 H24        31.4680   -2.5984   28.0392 H       1  <1>         0.0362
     59 H25        32.7923   -1.4973   27.8185 H       1  <1>         0.0362
     60 H26        34.3827   -4.3518   22.3109 H       1  <1>         0.0091
     61 H27        34.8964   -2.6789   22.7119 H       1  <1>         0.0091
     62 H28        33.2839   -1.6978   21.3064 H       1  <1>         0.0677
     63 H29        33.1837   -3.1113   20.2302 H       1  <1>         0.0677
     64 H30        35.5114   -4.3531   20.4458 H       1  <1>        -0.0817
     65 H31        37.2755    1.7510   27.3341 H       1  <1>         0.2921
     66 H32        24.9177   -0.3492   27.6727 H       1  <1>         0.2921
@<TRIPOS>BOND
     1     1     3   ar
     2     1    14   ar
     3     1    35    1
     4     2     8   ar
     5     2    15   ar
     6     2    36    1
     7     3    17   ar
     8     3    37    1
     9     4     9   ar
    10     4    16   ar
    11     4    38    1
    12     5    10   ar
    13     5    16   ar
    14     5    39    1
    15     6    11   ar
    16     6    18   ar
    17     6    40    1
    18     7    12   ar
    19     7    18   ar
    20     7    41    1
    21     8    22   ar
    22     8    42    1
    23     9    20   ar
    24     9    43    1
    25    10    20   ar
    26    10    44    1
    27    11    21   ar
    28    11    45    1
    29    12    21   ar
    30    12    46    1
    31    13    14   ar
    32    13    22   ar
    33    13    47    1
    34    14    15   ar
    35    15    19   ar
    36    16    17    1
    37    17    19   ar
    38    18    28    1
    39    19    28    1
    40    20    32    1
    41    21    34    1
    42    22    33    1
    43    23    24    1
    44    23    25    1
    45    23    48    1
    46    23    49    1
    47    24    26    1
    48    24    50    1
    49    24    51    1
    50    25    27    1
    51    25    52    1
    52    25    53    1
    53    26    31    1
    54    26    54    1
    55    26    55    1
    56    27    31    1
    57    27    56    1
    58    27    57    1
    59    28    58    1
    60    28    59    1
    61    29    30    1
    62    29    31    1
    63    29    60    1
    64    29    61    1
    65    30    34    1
    66    30    62    1
    67    30    63    1
    68    31    64    1
    69    32    65    1
    70    33    66    1
@<TRIPOS>SUBSTRUCTURE
     1 <1>         1 TEMP              0 ****  ****    0 ROOT


