@<TRIPOS>MOLECULE
mol0
 26 25 0 0 0
SMALL
GASTEIGER
Energy = 0

@<TRIPOS>ATOM
      1 N1         -1.7248   -0.3729   -1.6654 N.3       1 <1>         0.3766
      2 C1         -1.3211   -1.5250   -2.5500 C.3       1 <1>        -0.1010
      3 C2         -1.9130   -0.9017   -0.2695 C.3       1 <1>        -0.1010
      4 C3         -3.0271    0.1752   -2.1860 C.3       1 <1>        -0.1010
      5 C4         -0.6243    0.6675   -1.7142 C.3       1 <1>        -0.0537
      6 C5         -0.8302    1.9655   -0.8982 C.3       1 <1>         0.0783
      7 O1          0.2786    2.1704    0.0202 O.3       1 <1>        -0.4667
      8 C6         -0.0451    1.8215    1.3618 C.2       1 <1>         0.3039
      9 O2         -0.9733    2.4195    1.9631 O.2       1 <1>        -0.2512
     10 C7          0.6255    0.6548    2.0059 C.3       1 <1>         0.0332
     11 H1         -1.1890   -1.1940   -3.6074 H         1 <1>         0.0028
     12 H2         -2.0904   -2.3334   -2.5449 H         1 <1>         0.0028
     13 H3         -0.3581   -1.9760   -2.2124 H         1 <1>         0.0028
     14 H4         -2.6757   -1.7155   -0.2479 H         1 <1>         0.0028
     15 H5         -2.2595   -0.1081    0.4300 H         1 <1>         0.0028
     16 H6         -0.9599   -1.3188    0.1313 H         1 <1>         0.0028
     17 H7         -2.8942    0.6285   -3.1962 H         1 <1>         0.0028
     18 H8         -3.7966   -0.6283   -2.2708 H         1 <1>         0.0028
     19 H9         -3.4504    0.9551   -1.5147 H         1 <1>         0.0028
     20 H10         0.3342    0.1979   -1.3854 H         1 <1>         0.0096
     21 H11        -0.4559    0.9693   -2.7765 H         1 <1>         0.0096
     22 H12        -1.8208    2.0045   -0.3894 H         1 <1>         0.0678
     23 H13        -0.8301    2.8295   -1.6032 H         1 <1>         0.0678
     24 H14        -0.0848    0.1240    2.6779 H         1 <1>         0.0342
     25 H15         0.9853   -0.0516    1.2265 H         1 <1>         0.0342
     26 H16         1.4931    1.0176    2.5991 H         1 <1>         0.0342
@<TRIPOS>BOND
     1    1    2 1
     2    1    3 1
     3    1    4 1
     4    1    5 1
     5    5    6 1
     6    6    7 1
     7    7    8 1
     8    8    9 2
     9    8   10 1
    10    2   11 1
    11    2   12 1
    12    2   13 1
    13    3   14 1
    14    3   15 1
    15    3   16 1
    16    4   17 1
    17    4   18 1
    18    4   19 1
    19    5   20 1
    20    5   21 1
    21    6   22 1
    22    6   23 1
    23   10   24 1
    24   10   25 1
    25   10   26 1
@<TRIPOS>MOLECULE
mol1
 18 17 0 0 0
SMALL
GASTEIGER
Energy = 0

@<TRIPOS>ATOM
      1 N          -2.9657    5.2757   -6.9493 N.am      1LIG111        -0.3050
      2 C          -1.8441    5.2049   -7.9277 C.3       1LIG111         0.0031
      3 C          -3.3344    4.1002   -6.2455 C.2       1LIG111         0.2122
      4 C          -2.9138    3.9059   -4.8237 C.3       1LIG111         0.0123
      5 O          -4.0251    3.2000   -6.8390 O.2       1LIG111        -0.2759
      6 C          -3.6948    6.5563   -6.7082 C.3       1LIG111         0.0115
      7 C          -2.8578    7.5088   -5.8619 C.3       1LIG111        -0.0493
      8 H          -0.8997    4.9470   -7.3975 H         1LIG111         0.0428
      9 H          -1.7035    6.1773   -8.4521 H         1LIG111         0.0428
     10 H          -2.0585    4.4220   -8.6908 H         1LIG111         0.0428
     11 H          -3.1792    2.8834   -4.4728 H         1LIG111         0.0323
     12 H          -1.8130    4.0441   -4.7415 H         1LIG111         0.0323
     13 H          -3.4281    4.6546   -4.1818 H         1LIG111         0.0323
     14 H          -4.6613    6.3625   -6.1855 H         1LIG111         0.0462
     15 H          -3.9321    7.0399   -7.6841 H         1LIG111         0.0462
     16 H          -1.9135    7.7666   -6.3923 H         1LIG111         0.0245
     17 H          -3.4301    8.4451   -5.6739 H         1LIG111         0.0245
     18 H          -2.6082    7.0367   -4.8854 H         1LIG111         0.0245
@<TRIPOS>BOND
     1    1    2 1
     2    1    3 am
     3    3    4 1
     4    3    5 2
     5    1    6 1
     6    6    7 1
     7    2    8 1
     8    2    9 1
     9    2   10 1
    10    4   11 1
    11    4   12 1
    12    4   13 1
    13    6   14 1
    14    6   15 1
    15    7   16 1
    16    7   17 1
    17    7   18 1
@<TRIPOS>MOLECULE
mol2
 43 44 0 0 0
SMALL
GASTEIGER
Energy = 0

@<TRIPOS>ATOM
      1 C1         -0.7926    0.6324    2.7634 C.ar      1 <1>         0.1381
      2 C2         -2.1822    0.4916    2.7047 C.ar      1 <1>         0.1074
      3 C3         -2.7919   -0.4140    1.8735 C.ar      1 <1>         0.0136
      4 C4         -2.0331   -1.3248    1.1142 C.ar      1 <1>        -0.0011
      5 C5         -0.6157   -1.2342    1.1792 C.ar      1 <1>         0.1303
      6 C6          0.0103   -0.2289    1.9740 C.ar      1 <1>         0.0404
      7 C7         -4.2820   -0.3004    2.0103 C.3       1 <1>         0.1191
      8 O1         -4.5468    0.6880    3.0502 O.3       1 <1>        -0.4563
      9 C8         -3.2556    1.1709    3.3938 C.2       1 <1>         0.3435
     10 O2         -3.0854    2.1306    4.1849 O.2       1 <1>        -0.2448
     11 O3         -0.2101    1.5335    3.6876 O.3       1 <1>        -0.5055
     12 C9         -2.7110   -2.2527    0.1363 C.3       1 <1>        -0.0358
     13 O4          0.1739   -2.0835    0.3519 O.3       1 <1>        -0.4944
     14 C10         0.4835   -3.3099    1.0627 C.3       1 <1>         0.0788
     15 C11         1.5191   -0.0628    2.0002 C.3       1 <1>        -0.0023
     16 C12         1.9520    1.3157    1.5426 C.2       1 <1>        -0.0805
     17 C13         1.7459    1.8653    0.3125 C.2       1 <1>        -0.0757
     18 C14         1.1166    1.0842   -0.8394 C.3       1 <1>        -0.0219
     19 C15         1.6713    1.3388   -2.2513 C.3       1 <1>         0.0484
     20 C16         1.0858    2.5410   -2.9307 C.2       1 <1>         0.3050
     21 O5         -0.0905    2.3904   -3.6999 O.3       1 <1>        -0.4806
     22 O6          1.7646    3.5928   -3.0365 O.2       1 <1>        -0.2510
     23 C17         2.2029    3.2894    0.0821 C.3       1 <1>        -0.0438
     24 H1         -4.7246   -1.2824    2.2960 H         1 <1>         0.0749
     25 H2         -4.7299    0.0468    1.0507 H         1 <1>         0.0749
     26 H3         -0.2065    2.4556    3.2150 H         1 <1>         0.2922
     27 H4         -3.6644   -1.8187   -0.2396 H         1 <1>         0.0279
     28 H5         -2.9300   -3.2200    0.6407 H         1 <1>         0.0279
     29 H6         -2.0652   -2.4463   -0.7498 H         1 <1>         0.0279
     30 H7          1.0371   -3.1034    2.0087 H         1 <1>         0.0660
     31 H8         -0.4428   -3.8875    1.2890 H         1 <1>         0.0660
     32 H9          1.1325   -3.9398    0.4143 H         1 <1>         0.0660
     33 H10         2.0346   -0.8132    1.3611 H         1 <1>         0.0358
     34 H11         1.8599   -0.2196    3.0497 H         1 <1>         0.0358
     35 H12         2.4707    1.9059    2.2993 H         1 <1>         0.0575
     36 H13         1.2797   -0.0014   -0.6719 H         1 <1>         0.0315
     37 H14         0.0156    1.2549   -0.8262 H         1 <1>         0.0315
     38 H15         1.4128    0.4625   -2.8900 H         1 <1>         0.0381
     39 H16         2.7830    1.4088   -2.2224 H         1 <1>         0.0381
     40 H17         0.0359    2.9838   -4.5387 H         1 <1>         0.2951
     41 H18         3.0745    3.3001   -0.6093 H         1 <1>         0.0274
     42 H19         1.3686    3.8740   -0.3659 H         1 <1>         0.0274
     43 H20         2.5025    3.8073    1.0223 H         1 <1>         0.0274
@<TRIPOS>BOND
     1    1    2 ar
     2    1    6 ar
     3    3    4 ar
     4    4    5 ar
     5    5    6 ar
     6    2    9 1
     7    2    3 ar
     8    3    7 1
     9    7    8 1
    10    8    9 1
    11    9   10 2
    12    1   11 1
    13    4   12 1
    14    5   13 1
    15   13   14 1
    16    6   15 1
    17   15   16 1
    18   16   17 2
    19   17   18 1
    20   18   19 1
    21   19   20 1
    22   20   21 1
    23   20   22 2
    24   17   23 1
    25    7   24 1
    26    7   25 1
    27   11   26 1
    28   12   27 1
    29   12   28 1
    30   12   29 1
    31   14   30 1
    32   14   31 1
    33   14   32 1
    34   15   33 1
    35   15   34 1
    36   16   35 1
    37   18   36 1
    38   18   37 1
    39   19   38 1
    40   19   39 1
    41   21   40 1
    42   23   41 1
    43   23   42 1
    44   23   43 1
@<TRIPOS>MOLECULE
mol3
 19 19 0 0 0
SMALL
GASTEIGER
Energy = 0

@<TRIPOS>ATOM
      1 C1         -0.6014   -0.2488    1.2406 C.ar      1 <1>         0.0512
      2 C2         -0.8863   -0.2310    2.6224 C.ar      1 <1>        -0.0391
      3 C3         -1.4672   -1.3409    3.2502 C.ar      1 <1>        -0.0599
      4 C4         -1.7719   -2.4854    2.5058 C.ar      1 <1>        -0.0598
      5 C5         -1.5026   -2.5193    1.1314 C.ar      1 <1>        -0.0335
      6 C6         -0.9247   -1.4089    0.4836 C.ar      1 <1>         0.1255
      7 N1         -0.0005    0.8692    0.6827 N.pl3     1 <1>        -0.3565
      8 S1         -0.6347   -1.5120   -1.2991 S.o2      1 <1>         0.0577
      9 N2         -1.5385   -0.3187   -2.2095 N.3       1 <1>        -0.2035
     10 O1         -1.0167   -2.8991   -1.8227 O.2       1 <1>        -0.1532
     11 O2          0.8567   -1.3327   -1.5915 O.2       1 <1>        -0.1532
     12 H1         -0.6483    0.6470    3.2211 H         1 <1>         0.0636
     13 H2         -1.6771   -1.3145    4.3182 H         1 <1>         0.0618
     14 H3         -2.2193   -3.3493    2.9946 H         1 <1>         0.0618
     15 H4         -1.7519   -3.4177    0.5704 H         1 <1>         0.0638
     16 H5          0.0981    1.7089    1.2067 H         1 <1>         0.1424
     17 H6          0.3477    0.8601   -0.2470 H         1 <1>         0.1424
     18 H7         -1.6181    0.5587   -1.6076 H         1 <1>         0.1442
     19 H8         -2.5284   -0.7036   -2.3216 H         1 <1>         0.1442
@<TRIPOS>BOND
     1    1    2 ar
     2    1    6 ar
     3    2    3 ar
     4    3    4 ar
     5    4    5 ar
     6    5    6 ar
     7    1    7 1
     8    6    8 1
     9    8    9 1
    10    8   10 2
    11    8   11 2
    12    2   12 1
    13    3   13 1
    14    4   14 1
    15    5   15 1
    16    7   16 1
    17    7   17 1
    18    9   18 1
    19    9   19 1
@<TRIPOS>MOLECULE
mol4
 19 19 0 0 0
SMALL
GASTEIGER
Energy = 0

@<TRIPOS>ATOM
      1 C          -0.2059    1.3728    3.6521 C.ar      1LIG11        -0.0610
      2 C          -0.1612    0.0675    3.1381 C.ar      1LIG11        -0.0496
      3 C           0.8881   -0.3327    2.2792 C.ar      1LIG11         0.0367
      4 C           1.8954    0.6062    1.9629 C.ar      1LIG11        -0.0496
      5 C           1.8457    1.9115    2.4754 C.ar      1LIG11        -0.0610
      6 C           0.7944    2.2953    3.3182 C.ar      1LIG11        -0.0617
      7 C           0.9670   -1.7159    1.7192 C.2       1LIG11         0.2438
      8 O           2.1071   -2.1746    1.3493 O.2       1LIG11        -0.2702
      9 N          -0.1852   -2.5491    1.5822 N.am      1LIG11        -0.3144
     10 C          -0.0715   -3.9253    1.0287 C.3       1LIG11         0.0004
     11 H          -1.0161    1.6683    4.3165 H         1LIG11         0.0618
     12 H          -0.9397   -0.6288    3.4386 H         1LIG11         0.0625
     13 H           2.7211    0.3314    1.3079 H         1LIG11         0.0625
     14 H           2.6249    2.6268    2.2179 H         1LIG11         0.0618
     15 H           0.7574    3.3075    3.7169 H         1LIG11         0.0618
     16 H          -1.1558   -2.1957    1.8703 H         1LIG11         0.1487
     17 H           0.5037   -3.9154    0.0743 H         1LIG11         0.0426
     18 H           0.4457   -4.5837    1.7629 H         1LIG11         0.0426
     19 H          -1.0860   -4.3375    0.8264 H         1LIG11         0.0426
@<TRIPOS>BOND
     1    1    2 ar
     2    1    6 ar
     3    2    3 ar
     4    3    4 ar
     5    4    5 ar
     6    5    6 ar
     7    3    7 1
     8    7    8 2
     9    7    9 am
    10    9   10 1
    11    1   11 1
    12    2   12 1
    13    4   13 1
    14    5   14 1
    15    6   15 1
    16    9   16 1
    17   10   17 1
    18   10   18 1
    19   10   19 1
