

@<TRIPOS>MOLECULE
1$ERinh1_1_ERRpdb_raloxifen
 61 65 1 0 0
SMALL
USER_CHARGES

mmff94s_NoEstat = 78.58
@<TRIPOS>ATOM
      1 C1         28.7941   -2.4189   26.6883 C.ar      1 <1>        -0.0494
      2 C2         27.3899   -2.3162   26.7766 C.ar      1 <1>        -0.0195
      3 C3         26.7920   -1.1170   27.2047 C.ar      1 <1>         0.1180
      4 O1         25.3847   -1.0289   27.3376 O.3       1 <1>        -0.5067
      5 C4         27.5941   -0.0221   27.5707 C.ar      1 <1>        -0.0058
      6 C5         28.9914   -0.1442   27.4982 C.ar      1 <1>         0.0241
      7 S1         30.1590    1.1096   28.0515 S.3       1 <1>        -0.0874
      8 C6         31.4603   -0.0634   27.5816 C.2       1 <1>         0.0313
      9 C7         32.8868    0.2319   27.7834 C.ar      1 <1>        -0.0104
     10 C8         33.4775    0.0556   29.0473 C.ar      1 <1>        -0.0501
     11 C9         34.8628    0.2266   29.1945 C.ar      1 <1>        -0.0196
     12 C10        35.6482    0.5930   28.1005 C.ar      1 <1>         0.1169
     13 O2         37.0196    0.8758   28.2620 O.3       1 <1>        -0.5068
     14 C11        35.0675    0.6827   26.8363 C.ar      1 <1>        -0.0196
     15 C12        33.6889    0.5250   26.6697 C.ar      1 <1>        -0.0501
     16 C13        29.5843   -1.3118   27.0268 C.ar      1 <1>         0.0008
     17 C14        31.0513   -1.2208   27.0343 C.2       1 <1>         0.0447
     18 C15        32.0349   -2.2489   26.5755 C.2       1 <1>         0.1948
     19 O3         32.8011   -2.7194   27.4575 O.2       1 <1>        -0.2866
     20 C16        32.2590   -2.6404   25.1500 C.ar      1 <1>         0.0225
     21 C17        31.4648   -2.1559   24.0894 C.ar      1 <1>        -0.0475
     22 C18        31.7353   -2.5538   22.7658 C.ar      1 <1>        -0.0193
     23 C19        32.8269   -3.3776   22.4726 C.ar      1 <1>         0.1206
     24 C20        33.6247   -3.8545   23.5133 C.ar      1 <1>        -0.0193
     25 C21        33.3414   -3.4946   24.8381 C.ar      1 <1>        -0.0475
     26 O4         33.0402   -3.8471   21.1488 O.3       1 <1>        -0.4907
     27 C22        33.8383   -2.8952   20.4070 C.3       1 <1>         0.1022
     28 C23        34.3218   -3.5046   19.0908 C.3       1 <1>         0.0331
     29 N1         35.0333   -2.5100   18.2107 N.3       1 <1>        -0.2991
     30 C24        36.3163   -2.0158   18.8097 C.3       1 <1>        -0.0010
     31 C25        37.0361   -1.0086   17.9084 C.3       1 <1>        -0.0402
     32 C26        37.2541   -1.5848   16.5095 C.3       1 <1>        -0.0507
     33 C27        35.9222   -2.0525   15.9189 C.3       1 <1>        -0.0402
     34 C28        35.2410   -3.0727   16.8379 C.3       1 <1>        -0.0010
     35 H1         29.2559   -3.3537   26.3955 H         1 <1>         0.0625
     36 H2         26.7649   -3.1693   26.5200 H         1 <1>         0.0654
     37 H3         25.0176   -1.1210   26.3697 H         1 <1>         0.2921
     38 H4         27.1418    0.8995   27.9229 H         1 <1>         0.0665
     39 H5         32.8748   -0.2491   29.9004 H         1 <1>         0.0625
     40 H6         35.3582    0.0544   30.1405 H         1 <1>         0.0654
     41 H7         37.4342    0.0465   28.7223 H         1 <1>         0.2921
     42 H8         35.6912    0.9099   25.9908 H         1 <1>         0.0654
     43 H9         33.2497    0.6205   25.6774 H         1 <1>         0.0625
     44 H10        30.6217   -1.4944   24.2783 H         1 <1>         0.0626
     45 H11        31.0924   -2.2489   21.9504 H         1 <1>         0.0654
     46 H12        34.4546   -4.5214   23.2908 H         1 <1>         0.0654
     47 H13        33.9762   -3.8948   25.6215 H         1 <1>         0.0626
     48 H14        33.2248   -2.0018   20.1589 H         1 <1>         0.0709
     49 H15        34.7242   -2.6030   21.0126 H         1 <1>         0.0709
     50 H16        34.9783   -4.3774   19.3168 H         1 <1>         0.0460
     51 H17        33.4150   -3.8923   18.5669 H         1 <1>         0.0460
     52 H18        36.0882   -1.4647   19.7425 H         1 <1>         0.0427
     53 H19        36.9953   -2.8676   19.0505 H         1 <1>         0.0427
     54 H20        36.4191   -0.0814   17.8340 H         1 <1>         0.0278
     55 H21        38.0167   -0.7368   18.3634 H         1 <1>         0.0278
     56 H22        37.6946   -0.7987   15.8545 H         1 <1>         0.0266
     57 H23        37.9636   -2.4429   16.5627 H         1 <1>         0.0266
     58 H24        35.2524   -1.1693   15.8058 H         1 <1>         0.0278
     59 H25        36.0895   -2.5031   14.9137 H         1 <1>         0.0278
     60 H26        35.8554   -4.0030   16.8851 H         1 <1>         0.0427
     61 H27        34.2550   -3.3331   16.3851 H         1 <1>         0.0427
@<TRIPOS>BOND
     1    1    2 ar
     2    1   16 ar
     3    1   35 1
     4    2    3 ar
     5    2   36 1
     6    3    4 1
     7    3    5 ar
     8    4   37 1
     9    5    6 ar
    10    5   38 1
    11    6    7 1
    12    6   16 ar
    13    7    8 1
    14    8    9 1
    15    8   17 2
    16    9   10 ar
    17    9   15 ar
    18   10   11 ar
    19   10   39 1
    20   11   12 ar
    21   11   40 1
    22   12   13 1
    23   12   14 ar
    24   13   41 1
    25   14   15 ar
    26   14   42 1
    27   15   43 1
    28   16   17 1
    29   17   18 1
    30   18   19 2
    31   18   20 1
    32   20   21 ar
    33   20   25 ar
    34   21   22 ar
    35   21   44 1
    36   22   23 ar
    37   22   45 1
    38   23   24 ar
    39   23   26 1
    40   24   25 ar
    41   24   46 1
    42   25   47 1
    43   26   27 1
    44   27   28 1
    45   27   48 1
    46   27   49 1
    47   28   29 1
    48   28   50 1
    49   28   51 1
    50   29   30 1
    51   29   34 1
    52   30   31 1
    53   30   52 1
    54   30   53 1
    55   31   32 1
    56   31   54 1
    57   31   55 1
    58   32   33 1
    59   32   56 1
    60   32   57 1
    61   33   34 1
    62   33   58 1
    63   33   59 1
    64   34   60 1
    65   34   61 1
@<TRIPOS>MOLECULE
2$ERinh1_1_ERRpdb_raloxifen
 61 65 1 0 0
SMALL
USER_CHARGES

mmff94s_NoEstat = 78.58
@<TRIPOS>ATOM
      1 C1         28.8974   -2.5734   26.7700 C.ar      1 <1>        -0.0494
      2 C2         27.4937   -2.5241   26.8434 C.ar      1 <1>        -0.0195
      3 C3         26.8561   -1.3890   27.3846 C.ar      1 <1>         0.1180
      4 O1         25.4480   -1.3192   27.4622 O.3       1 <1>        -0.5067
      5 C4         27.6247   -0.3258   27.8862 C.ar      1 <1>        -0.0058
      6 C5         29.0226   -0.3948   27.8166 C.ar      1 <1>         0.0241
      7 S1         30.1530    0.8435   28.4743 S.3       1 <1>        -0.0874
      8 C6         31.4909   -0.2213   27.8633 C.2       1 <1>         0.0313
      9 C7         32.9093    0.1327   28.0083 C.ar      1 <1>        -0.0104
     10 C8         33.5912   -0.1209   29.2096 C.ar      1 <1>        -0.0501
     11 C9         34.9768    0.0938   29.2843 C.ar      1 <1>        -0.0196
     12 C10        35.6783    0.5603   28.1685 C.ar      1 <1>         0.1169
     13 O2         37.0425    0.9123   28.2552 O.3       1 <1>        -0.5068
     14 C11        35.0014    0.7466   26.9642 C.ar      1 <1>        -0.0196
     15 C12        33.6227    0.5496   26.8748 C.ar      1 <1>        -0.0501
     16 C13        29.6554   -1.4912   27.2345 C.ar      1 <1>         0.0008
     17 C14        31.1176   -1.3548   27.2463 C.2       1 <1>         0.0447
     18 C15        32.1380   -2.3161   26.7082 C.2       1 <1>         0.1948
     19 O3         32.9502   -2.7929   27.5392 O.2       1 <1>        -0.2866
     20 C16        32.3166   -2.6460   25.2616 C.ar      1 <1>         0.0225
     21 C17        31.4776   -2.1281   24.2602 C.ar      1 <1>        -0.0475
     22 C18        31.6717   -2.4922   22.9165 C.ar      1 <1>        -0.0193
     23 C19        32.7280   -3.3407   22.5376 C.ar      1 <1>         0.1206
     24 C20        33.6076   -3.7959   23.5205 C.ar      1 <1>        -0.0193
     25 C21        33.3933   -3.4747   24.8693 C.ar      1 <1>        -0.0475
     26 O4         32.9051   -3.8195   21.2051 O.3       1 <1>        -0.4907
     27 C22        32.8421   -2.7954   20.1786 C.3       1 <1>         0.1022
     28 C23        33.0436   -3.3978   18.7841 C.3       1 <1>         0.0331
     29 N1         34.3441   -4.1101   18.5459 N.3       1 <1>        -0.2991
     30 C24        34.3206   -4.7573   17.1919 C.3       1 <1>        -0.0010
     31 C25        35.5833   -5.5881   16.9478 C.3       1 <1>        -0.0402
     32 C26        36.8460   -4.7443   17.1489 C.3       1 <1>        -0.0507
     33 C27        36.8357   -4.0569   18.5181 C.3       1 <1>        -0.0402
     34 C28        35.5520   -3.2439   18.7226 C.3       1 <1>        -0.0010
     35 H1         29.3947   -3.4462   26.3714 H         1 <1>         0.0625
     36 H2         26.8980   -3.3605   26.4790 H         1 <1>         0.0654
     37 H3         25.1244   -1.3458   26.4742 H         1 <1>         0.2921
     38 H4         27.1348    0.5360   28.3293 H         1 <1>         0.0665
     39 H5         33.0567   -0.5221   30.0665 H         1 <1>         0.0625
     40 H6         35.5325   -0.1218   30.1894 H         1 <1>         0.0654
     41 H7         37.1691    1.4127   29.1546 H         1 <1>         0.2921
     42 H8         35.5499    1.0635   26.0973 H         1 <1>         0.0654
     43 H9         33.1183    0.7006   25.9207 H         1 <1>         0.0625
     44 H10        30.6492   -1.4669   24.5090 H         1 <1>         0.0626
     45 H11        30.9672   -2.1551   22.1741 H         1 <1>         0.0654
     46 H12        34.4349   -4.4462   23.2415 H         1 <1>         0.0654
     47 H13        34.0738   -3.8848   25.6064 H         1 <1>         0.0626
     48 H14        31.8267   -2.3428   20.1503 H         1 <1>         0.0709
     49 H15        33.5869   -1.9934   20.3647 H         1 <1>         0.0709
     50 H16        32.2064   -4.1245   18.6440 H         1 <1>         0.0460
     51 H17        32.9128   -2.5840   18.0318 H         1 <1>         0.0460
     52 H18        33.4446   -5.4454   17.1140 H         1 <1>         0.0427
     53 H19        34.2237   -3.9856   16.3906 H         1 <1>         0.0427
     54 H20        35.5908   -6.4490   17.6566 H         1 <1>         0.0278
     55 H21        35.5632   -5.9906   15.9087 H         1 <1>         0.0278
     56 H22        37.7412   -5.4023   17.0735 H         1 <1>         0.0266
     57 H23        36.9068   -3.9732   16.3459 H         1 <1>         0.0266
     58 H24        36.9018   -4.8316   19.3185 H         1 <1>         0.0278
     59 H25        37.7199   -3.3855   18.6081 H         1 <1>         0.0278
     60 H26        35.5236   -2.3830   18.0136 H         1 <1>         0.0427
     61 H27        35.5894   -2.8471   19.7622 H         1 <1>         0.0427
@<TRIPOS>BOND
     1    1    2 ar
     2    1   16 ar
     3    1   35 1
     4    2    3 ar
     5    2   36 1
     6    3    4 1
     7    3    5 ar
     8    4   37 1
     9    5    6 ar
    10    5   38 1
    11    6    7 1
    12    6   16 ar
    13    7    8 1
    14    8    9 1
    15    8   17 2
    16    9   10 ar
    17    9   15 ar
    18   10   11 ar
    19   10   39 1
    20   11   12 ar
    21   11   40 1
    22   12   13 1
    23   12   14 ar
    24   13   41 1
    25   14   15 ar
    26   14   42 1
    27   15   43 1
    28   16   17 1
    29   17   18 1
    30   18   19 2
    31   18   20 1
    32   20   21 ar
    33   20   25 ar
    34   21   22 ar
    35   21   44 1
    36   22   23 ar
    37   22   45 1
    38   23   24 ar
    39   23   26 1
    40   24   25 ar
    41   24   46 1
    42   25   47 1
    43   26   27 1
    44   27   28 1
    45   27   48 1
    46   27   49 1
    47   28   29 1
    48   28   50 1
    49   28   51 1
    50   29   30 1
    51   29   34 1
    52   30   31 1
    53   30   52 1
    54   30   53 1
    55   31   32 1
    56   31   54 1
    57   31   55 1
    58   32   33 1
    59   32   56 1
    60   32   57 1
    61   33   34 1
    62   33   58 1
    63   33   59 1
    64   34   60 1
    65   34   61 1
@<TRIPOS>MOLECULE
3$ERinh1_1_ERRpdb_raloxifen
 61 65 1 0 0
SMALL
USER_CHARGES

mmff94s_NoEstat = 78.58
@<TRIPOS>ATOM
      1 C1         34.3461   -1.2289   26.7645 C.ar      1 <1>        -0.0494
      2 C2         35.5909   -0.6426   27.0333 C.ar      1 <1>        -0.0195
      3 C3         35.6737    0.4565   27.8922 C.ar      1 <1>         0.1180
      4 O1         36.9097    1.0851   28.1336 O.3       1 <1>        -0.5067
      5 C4         34.5075    1.0079   28.4218 C.ar      1 <1>        -0.0058
      6 C5         33.2629    0.4197   28.1414 C.ar      1 <1>         0.0241
      7 S1         31.6945    0.9796   28.8027 S.3       1 <1>        -0.0874
      8 C6         30.9133   -0.3553   27.8554 C.2       1 <1>         0.0313
      9 C7         29.4326   -0.4455   27.8825 C.ar      1 <1>        -0.0104
     10 C8         28.6787    0.6467   27.4169 C.ar      1 <1>        -0.0501
     11 C9         27.2850    0.5385   27.3060 C.ar      1 <1>        -0.0196
     12 C10        26.6366   -0.6697   27.6114 C.ar      1 <1>         0.1169
     13 O2         25.2419   -0.8004   27.4345 O.3       1 <1>        -0.5068
     14 C11        27.3697   -1.7176   28.1832 C.ar      1 <1>        -0.0196
     15 C12        28.7588   -1.5961   28.3366 C.ar      1 <1>        -0.0501
     16 C13        33.1638   -0.6892   27.3028 C.ar      1 <1>         0.0008
     17 C14        31.7573   -1.1363   27.1168 C.2       1 <1>         0.0447
     18 C15        31.2891   -2.2371   26.1846 C.2       1 <1>         0.1948
     19 O3         30.2119   -2.8329   26.4169 O.2       1 <1>        -0.2866
     20 C16        31.9569   -2.6017   24.9245 C.ar      1 <1>         0.0225
     21 C17        31.4740   -2.0390   23.7337 C.ar      1 <1>        -0.0475
     22 C18        32.0447   -2.4013   22.5087 C.ar      1 <1>        -0.0193
     23 C19        33.1650   -3.2453   22.4557 C.ar      1 <1>         0.1206
     24 C20        33.5930   -3.8648   23.6345 C.ar      1 <1>        -0.0193
     25 C21        32.9631   -3.5818   24.8586 C.ar      1 <1>        -0.0475
     26 O4         33.9082   -3.4770   21.2617 O.3       1 <1>        -0.4907
     27 C22        33.0874   -3.7165   20.0806 C.3       1 <1>         0.1022
     28 C23        33.9570   -4.2136   18.9172 C.3       1 <1>         0.0331
     29 N1         35.3354   -3.6163   18.8538 N.3       1 <1>        -0.2991
     30 C24        36.1614   -4.2291   17.7663 C.3       1 <1>        -0.0010
     31 C25        37.6262   -3.7895   17.9020 C.3       1 <1>        -0.0402
     32 C26        37.7475   -2.2596   17.9447 C.3       1 <1>        -0.0507
     33 C27        36.8097   -1.6532   18.9852 C.3       1 <1>        -0.0402
     34 C28        35.3684   -2.1198   18.7806 C.3       1 <1>        -0.0010
     35 H1         34.3462   -2.1130   26.1652 H         1 <1>         0.0625
     36 H2         36.4923   -1.0602   26.5945 H         1 <1>         0.0654
     37 H3         37.2543    0.7098   29.0357 H         1 <1>         0.2921
     38 H4         34.6086    1.8822   29.0442 H         1 <1>         0.0665
     39 H5         29.1698    1.5677   27.1120 H         1 <1>         0.0625
     40 H6         26.7149    1.3844   26.9536 H         1 <1>         0.0654
     41 H7         25.1447   -1.2528   26.5036 H         1 <1>         0.2921
     42 H8         26.8641   -2.6336   28.4813 H         1 <1>         0.0654
     43 H9         29.3222   -2.4211   28.7548 H         1 <1>         0.0625
     44 H10        30.6318   -1.3483   23.7511 H         1 <1>         0.0626
     45 H11        31.6151   -2.0288   21.5959 H         1 <1>         0.0654
     46 H12        34.4383   -4.5454   23.5932 H         1 <1>         0.0654
     47 H13        33.2859   -4.0996   25.7606 H         1 <1>         0.0626
     48 H14        32.2780   -4.4607   20.2857 H         1 <1>         0.0709
     49 H15        32.6200   -2.7631   19.7410 H         1 <1>         0.0709
     50 H16        34.0535   -5.3166   19.0510 H         1 <1>         0.0460
     51 H17        33.4134   -4.0354   17.9588 H         1 <1>         0.0460
     52 H18        36.1262   -5.3416   17.8375 H         1 <1>         0.0427
     53 H19        35.7654   -3.9329   16.7654 H         1 <1>         0.0427
     54 H20        38.0421   -4.2162   18.8450 H         1 <1>         0.0278
     55 H21        38.2171   -4.1901   17.0469 H         1 <1>         0.0278
     56 H22        38.7802   -1.9703   18.2342 H         1 <1>         0.0266
     57 H23        37.5207   -1.8343   16.9394 H         1 <1>         0.0266
     58 H24        37.1479   -1.9952   19.9910 H         1 <1>         0.0278
     59 H25        36.8643   -0.5407   18.9409 H         1 <1>         0.0278
     60 H26        34.9714   -1.7552   17.8036 H         1 <1>         0.0427
     61 H27        34.7621   -1.6604   19.5942 H         1 <1>         0.0427
@<TRIPOS>BOND
     1    1    2 ar
     2    1   16 ar
     3    1   35 1
     4    2    3 ar
     5    2   36 1
     6    3    4 1
     7    3    5 ar
     8    4   37 1
     9    5    6 ar
    10    5   38 1
    11    6    7 1
    12    6   16 ar
    13    7    8 1
    14    8    9 1
    15    8   17 2
    16    9   10 ar
    17    9   15 ar
    18   10   11 ar
    19   10   39 1
    20   11   12 ar
    21   11   40 1
    22   12   13 1
    23   12   14 ar
    24   13   41 1
    25   14   15 ar
    26   14   42 1
    27   15   43 1
    28   16   17 1
    29   17   18 1
    30   18   19 2
    31   18   20 1
    32   20   21 ar
    33   20   25 ar
    34   21   22 ar
    35   21   44 1
    36   22   23 ar
    37   22   45 1
    38   23   24 ar
    39   23   26 1
    40   24   25 ar
    41   24   46 1
    42   25   47 1
    43   26   27 1
    44   27   28 1
    45   27   48 1
    46   27   49 1
    47   28   29 1
    48   28   50 1
    49   28   51 1
    50   29   30 1
    51   29   34 1
    52   30   31 1
    53   30   52 1
    54   30   53 1
    55   31   32 1
    56   31   54 1
    57   31   55 1
    58   32   33 1
    59   32   56 1
    60   32   57 1
    61   33   34 1
    62   33   58 1
    63   33   59 1
    64   34   60 1
    65   34   61 1
@<TRIPOS>MOLECULE
4$ERinh1_1_ERRpdb_raloxifen
 61 65 1 0 0
SMALL
USER_CHARGES

mmff94s_NoEstat = 78.58
@<TRIPOS>ATOM
      1 C1         28.9079   -2.6500   26.7873 C.ar      1 <1>        -0.0494
      2 C2         27.5172   -2.6920   26.9697 C.ar      1 <1>        -0.0195
      3 C3         26.8471   -1.5853   27.5248 C.ar      1 <1>         0.1180
      4 O1         25.4551   -1.6301   27.7432 O.3       1 <1>        -0.5067
      5 C4         27.5647   -0.4313   27.8758 C.ar      1 <1>        -0.0058
      6 C5         28.9585   -0.4243   27.7353 C.ar      1 <1>         0.0241
      7 S1         30.0478    0.9008   28.2788 S.3       1 <1>        -0.0874
      8 C6         31.4070   -0.1791   27.7513 C.2       1 <1>         0.0313
      9 C7         32.8092    0.1938   27.9071 C.ar      1 <1>        -0.0104
     10 C8         33.5103   -0.0946   29.0911 C.ar      1 <1>        -0.0501
     11 C9         34.9004    0.0909   29.1350 C.ar      1 <1>        -0.0196
     12 C10        35.5847    0.5249   27.9956 C.ar      1 <1>         0.1169
     13 O2         36.9723    0.7725   28.0194 O.3       1 <1>        -0.5068
     14 C11        34.8746    0.7721   26.8226 C.ar      1 <1>        -0.0196
     15 C12        33.4929    0.6332   26.7697 C.ar      1 <1>        -0.0501
     16 C13        29.6218   -1.5180   27.1841 C.ar      1 <1>         0.0008
     17 C14        31.0729   -1.3452   27.1761 C.2       1 <1>         0.0447
     18 C15        32.1039   -2.3205   26.6813 C.2       1 <1>         0.1948
     19 O3         32.9105   -2.7644   27.5406 O.2       1 <1>        -0.2866
     20 C16        32.3105   -2.6969   25.2493 C.ar      1 <1>         0.0225
     21 C17        31.5186   -2.1756   24.2090 C.ar      1 <1>        -0.0475
     22 C18        31.8234   -2.4704   22.8683 C.ar      1 <1>        -0.0193
     23 C19        32.9523   -3.2428   22.5278 C.ar      1 <1>         0.1206
     24 C20        33.7015   -3.8083   23.5628 C.ar      1 <1>        -0.0193
     25 C21        33.3828   -3.5476   24.9029 C.ar      1 <1>        -0.0475
     26 O4         33.4082   -3.4899   21.1953 O.3       1 <1>        -0.4907
     27 C22        32.3921   -3.5328   20.1494 C.3       1 <1>         0.1022
     28 C23        33.0505   -3.7108   18.7673 C.3       1 <1>         0.0331
     29 N1         34.3776   -3.0194   18.5852 N.3       1 <1>        -0.2991
     30 C24        34.9293   -3.2206   17.2085 C.3       1 <1>        -0.0010
     31 C25        36.3678   -2.6894   17.1170 C.3       1 <1>        -0.0402
     32 C26        36.4793   -1.2355   17.6010 C.3       1 <1>        -0.0507
     33 C27        35.8284   -1.0589   18.9745 C.3       1 <1>        -0.0402
     34 C28        34.3849   -1.5653   18.9407 C.3       1 <1>        -0.0010
     35 H1         29.4323   -3.4930   26.3665 H         1 <1>         0.0625
     36 H2         26.9541   -3.5726   26.6689 H         1 <1>         0.0654
     37 H3         25.0616   -1.7484   26.7883 H         1 <1>         0.2921
     38 H4         27.0420    0.4427   28.2509 H         1 <1>         0.0665
     39 H5         32.9941   -0.5169   29.9493 H         1 <1>         0.0625
     40 H6         35.4716   -0.1446   30.0257 H         1 <1>         0.0654
     41 H7         37.1886    1.2244   28.9273 H         1 <1>         0.2921
     42 H8         35.3921    1.0964   25.9466 H         1 <1>         0.0654
     43 H9         32.9697    0.8254   25.8328 H         1 <1>         0.0625
     44 H10        30.6678   -1.5329   24.4257 H         1 <1>         0.0626
     45 H11        31.1806   -2.0810   22.0981 H         1 <1>         0.0654
     46 H12        34.5595   -4.4326   23.3198 H         1 <1>         0.0654
     47 H13        34.0021   -3.9969   25.6715 H         1 <1>         0.0626
     48 H14        31.6632   -4.3589   20.3335 H         1 <1>         0.0709
     49 H15        31.8384   -2.5704   20.0905 H         1 <1>         0.0709
     50 H16        33.2046   -4.8060   18.6242 H         1 <1>         0.0460
     51 H17        32.3288   -3.3749   17.9841 H         1 <1>         0.0460
     52 H18        34.9378   -4.3057   16.9536 H         1 <1>         0.0427
     53 H19        34.2937   -2.6993   16.4574 H         1 <1>         0.0427
     54 H20        37.0231   -3.3344   17.7466 H         1 <1>         0.0278
     55 H21        36.7173   -2.7519   16.0614 H         1 <1>         0.0278
     56 H22        37.5528   -0.9428   17.6624 H         1 <1>         0.0266
     57 H23        35.9739   -0.5575   16.8740 H         1 <1>         0.0266
     58 H24        36.3991   -1.6473   19.7304 H         1 <1>         0.0278
     59 H25        35.8481    0.0152   19.2722 H         1 <1>         0.0278
     60 H26        33.7857   -0.9779   18.2068 H         1 <1>         0.0427
     61 H27        33.9579   -1.3974   19.9498 H         1 <1>         0.0427
@<TRIPOS>BOND
     1    1    2 ar
     2    1   16 ar
     3    1   35 1
     4    2    3 ar
     5    2   36 1
     6    3    4 1
     7    3    5 ar
     8    4   37 1
     9    5    6 ar
    10    5   38 1
    11    6    7 1
    12    6   16 ar
    13    7    8 1
    14    8    9 1
    15    8   17 2
    16    9   10 ar
    17    9   15 ar
    18   10   11 ar
    19   10   39 1
    20   11   12 ar
    21   11   40 1
    22   12   13 1
    23   12   14 ar
    24   13   41 1
    25   14   15 ar
    26   14   42 1
    27   15   43 1
    28   16   17 1
    29   17   18 1
    30   18   19 2
    31   18   20 1
    32   20   21 ar
    33   20   25 ar
    34   21   22 ar
    35   21   44 1
    36   22   23 ar
    37   22   45 1
    38   23   24 ar
    39   23   26 1
    40   24   25 ar
    41   24   46 1
    42   25   47 1
    43   26   27 1
    44   27   28 1
    45   27   48 1
    46   27   49 1
    47   28   29 1
    48   28   50 1
    49   28   51 1
    50   29   30 1
    51   29   34 1
    52   30   31 1
    53   30   52 1
    54   30   53 1
    55   31   32 1
    56   31   54 1
    57   31   55 1
    58   32   33 1
    59   32   56 1
    60   32   57 1
    61   33   34 1
    62   33   58 1
    63   33   59 1
    64   34   60 1
    65   34   61 1
@<TRIPOS>MOLECULE
5$ERinh1_1_ERRpdb_raloxifen
 61 65 1 0 0
SMALL
USER_CHARGES

mmff94s_NoEstat = 78.58
@<TRIPOS>ATOM
      1 C1         28.7941   -2.4189   26.6883 C.ar      1 <1>        -0.0494
      2 C2         27.3899   -2.3162   26.7766 C.ar      1 <1>        -0.0195
      3 C3         26.7920   -1.1170   27.2047 C.ar      1 <1>         0.1180
      4 O1         25.3847   -1.0289   27.3376 O.3       1 <1>        -0.5067
      5 C4         27.5941   -0.0221   27.5707 C.ar      1 <1>        -0.0058
      6 C5         28.9914   -0.1442   27.4982 C.ar      1 <1>         0.0241
      7 S1         30.1590    1.1096   28.0515 S.3       1 <1>        -0.0874
      8 C6         31.4603   -0.0634   27.5816 C.2       1 <1>         0.0313
      9 C7         32.8868    0.2319   27.7834 C.ar      1 <1>        -0.0104
     10 C8         33.4775    0.0556   29.0473 C.ar      1 <1>        -0.0501
     11 C9         34.8628    0.2266   29.1945 C.ar      1 <1>        -0.0196
     12 C10        35.6482    0.5930   28.1005 C.ar      1 <1>         0.1169
     13 O2         37.0196    0.8758   28.2620 O.3       1 <1>        -0.5068
     14 C11        35.0675    0.6827   26.8363 C.ar      1 <1>        -0.0196
     15 C12        33.6889    0.5250   26.6697 C.ar      1 <1>        -0.0501
     16 C13        29.5843   -1.3118   27.0268 C.ar      1 <1>         0.0008
     17 C14        31.0513   -1.2208   27.0343 C.2       1 <1>         0.0447
     18 C15        32.0349   -2.2489   26.5755 C.2       1 <1>         0.1948
     19 O3         32.8011   -2.7194   27.4575 O.2       1 <1>        -0.2866
     20 C16        32.2590   -2.6404   25.1500 C.ar      1 <1>         0.0225
     21 C17        31.4648   -2.1559   24.0894 C.ar      1 <1>        -0.0475
     22 C18        31.7353   -2.5538   22.7658 C.ar      1 <1>        -0.0193
     23 C19        32.8269   -3.3776   22.4726 C.ar      1 <1>         0.1206
     24 C20        33.6247   -3.8545   23.5133 C.ar      1 <1>        -0.0193
     25 C21        33.3414   -3.4946   24.8381 C.ar      1 <1>        -0.0475
     26 O4         33.0402   -3.8471   21.1488 O.3       1 <1>        -0.4907
     27 C22        33.8383   -2.8952   20.4070 C.3       1 <1>         0.1022
     28 C23        34.3218   -3.5046   19.0908 C.3       1 <1>         0.0331
     29 N1         35.0333   -2.5100   18.2107 N.3       1 <1>        -0.2991
     30 C24        36.3163   -2.0158   18.8097 C.3       1 <1>        -0.0010
     31 C25        37.0361   -1.0086   17.9084 C.3       1 <1>        -0.0402
     32 C26        37.2541   -1.5848   16.5095 C.3       1 <1>        -0.0507
     33 C27        35.9222   -2.0525   15.9189 C.3       1 <1>        -0.0402
     34 C28        35.2410   -3.0727   16.8379 C.3       1 <1>        -0.0010
     35 H1         29.2559   -3.3537   26.3955 H         1 <1>         0.0625
     36 H2         26.7649   -3.1693   26.5200 H         1 <1>         0.0654
     37 H3         25.0176   -1.1210   26.3697 H         1 <1>         0.2921
     38 H4         27.1418    0.8995   27.9229 H         1 <1>         0.0665
     39 H5         32.8748   -0.2491   29.9004 H         1 <1>         0.0625
     40 H6         35.3582    0.0544   30.1405 H         1 <1>         0.0654
     41 H7         37.4342    0.0465   28.7223 H         1 <1>         0.2921
     42 H8         35.6912    0.9099   25.9908 H         1 <1>         0.0654
     43 H9         33.2497    0.6205   25.6774 H         1 <1>         0.0625
     44 H10        30.6217   -1.4944   24.2783 H         1 <1>         0.0626
     45 H11        31.0924   -2.2489   21.9504 H         1 <1>         0.0654
     46 H12        34.4546   -4.5214   23.2908 H         1 <1>         0.0654
     47 H13        33.9762   -3.8948   25.6215 H         1 <1>         0.0626
     48 H14        33.2248   -2.0018   20.1589 H         1 <1>         0.0709
     49 H15        34.7242   -2.6030   21.0126 H         1 <1>         0.0709
     50 H16        34.9783   -4.3774   19.3168 H         1 <1>         0.0460
     51 H17        33.4150   -3.8923   18.5669 H         1 <1>         0.0460
     52 H18        36.0882   -1.4647   19.7425 H         1 <1>         0.0427
     53 H19        36.9953   -2.8676   19.0505 H         1 <1>         0.0427
     54 H20        36.4191   -0.0814   17.8340 H         1 <1>         0.0278
     55 H21        38.0167   -0.7368   18.3634 H         1 <1>         0.0278
     56 H22        37.6946   -0.7987   15.8545 H         1 <1>         0.0266
     57 H23        37.9636   -2.4429   16.5627 H         1 <1>         0.0266
     58 H24        35.2524   -1.1693   15.8058 H         1 <1>         0.0278
     59 H25        36.0895   -2.5031   14.9137 H         1 <1>         0.0278
     60 H26        35.8554   -4.0030   16.8851 H         1 <1>         0.0427
     61 H27        34.2550   -3.3331   16.3851 H         1 <1>         0.0427
@<TRIPOS>BOND
     1    1    2 ar
     2    1   16 ar
     3    1   35 1
     4    2    3 ar
     5    2   36 1
     6    3    4 1
     7    3    5 ar
     8    4   37 1
     9    5    6 ar
    10    5   38 1
    11    6    7 1
    12    6   16 ar
    13    7    8 1
    14    8    9 1
    15    8   17 2
    16    9   10 ar
    17    9   15 ar
    18   10   11 ar
    19   10   39 1
    20   11   12 ar
    21   11   40 1
    22   12   13 1
    23   12   14 ar
    24   13   41 1
    25   14   15 ar
    26   14   42 1
    27   15   43 1
    28   16   17 1
    29   17   18 1
    30   18   19 2
    31   18   20 1
    32   20   21 ar
    33   20   25 ar
    34   21   22 ar
    35   21   44 1
    36   22   23 ar
    37   22   45 1
    38   23   24 ar
    39   23   26 1
    40   24   25 ar
    41   24   46 1
    42   25   47 1
    43   26   27 1
    44   27   28 1
    45   27   48 1
    46   27   49 1
    47   28   29 1
    48   28   50 1
    49   28   51 1
    50   29   30 1
    51   29   34 1
    52   30   31 1
    53   30   52 1
    54   30   53 1
    55   31   32 1
    56   31   54 1
    57   31   55 1
    58   32   33 1
    59   32   56 1
    60   32   57 1
    61   33   34 1
    62   33   58 1
    63   33   59 1
    64   34   60 1
    65   34   61 1
@<TRIPOS>MOLECULE
6$ERinh1_1_ERRpdb_raloxifen
 61 65 1 0 0
SMALL
USER_CHARGES

mmff94s_NoEstat = 78.58
@<TRIPOS>ATOM
      1 C1         28.8974   -2.5734   26.7700 C.ar      1 <1>        -0.0494
      2 C2         27.4937   -2.5241   26.8434 C.ar      1 <1>        -0.0195
      3 C3         26.8561   -1.3890   27.3846 C.ar      1 <1>         0.1180
      4 O1         25.4480   -1.3192   27.4622 O.3       1 <1>        -0.5067
      5 C4         27.6247   -0.3258   27.8862 C.ar      1 <1>        -0.0058
      6 C5         29.0226   -0.3948   27.8166 C.ar      1 <1>         0.0241
      7 S1         30.1530    0.8435   28.4743 S.3       1 <1>        -0.0874
      8 C6         31.4909   -0.2213   27.8633 C.2       1 <1>         0.0313
      9 C7         32.9093    0.1327   28.0083 C.ar      1 <1>        -0.0104
     10 C8         33.5912   -0.1209   29.2096 C.ar      1 <1>        -0.0501
     11 C9         34.9768    0.0938   29.2843 C.ar      1 <1>        -0.0196
     12 C10        35.6783    0.5603   28.1685 C.ar      1 <1>         0.1169
     13 O2         37.0425    0.9123   28.2552 O.3       1 <1>        -0.5068
     14 C11        35.0014    0.7466   26.9642 C.ar      1 <1>        -0.0196
     15 C12        33.6227    0.5496   26.8748 C.ar      1 <1>        -0.0501
     16 C13        29.6554   -1.4912   27.2345 C.ar      1 <1>         0.0008
     17 C14        31.1176   -1.3548   27.2463 C.2       1 <1>         0.0447
     18 C15        32.1380   -2.3161   26.7082 C.2       1 <1>         0.1948
     19 O3         32.9502   -2.7929   27.5392 O.2       1 <1>        -0.2866
     20 C16        32.3166   -2.6460   25.2616 C.ar      1 <1>         0.0225
     21 C17        31.4776   -2.1281   24.2602 C.ar      1 <1>        -0.0475
     22 C18        31.6717   -2.4922   22.9165 C.ar      1 <1>        -0.0193
     23 C19        32.7280   -3.3407   22.5376 C.ar      1 <1>         0.1206
     24 C20        33.6076   -3.7959   23.5205 C.ar      1 <1>        -0.0193
     25 C21        33.3933   -3.4747   24.8693 C.ar      1 <1>        -0.0475
     26 O4         32.9051   -3.8195   21.2051 O.3       1 <1>        -0.4907
     27 C22        32.8421   -2.7954   20.1786 C.3       1 <1>         0.1022
     28 C23        33.0436   -3.3978   18.7841 C.3       1 <1>         0.0331
     29 N1         34.3441   -4.1101   18.5459 N.3       1 <1>        -0.2991
     30 C24        34.3206   -4.7573   17.1919 C.3       1 <1>        -0.0010
     31 C25        35.5833   -5.5881   16.9478 C.3       1 <1>        -0.0402
     32 C26        36.8460   -4.7443   17.1489 C.3       1 <1>        -0.0507
     33 C27        36.8357   -4.0569   18.5181 C.3       1 <1>        -0.0402
     34 C28        35.5520   -3.2439   18.7226 C.3       1 <1>        -0.0010
     35 H1         29.3947   -3.4462   26.3714 H         1 <1>         0.0625
     36 H2         26.8980   -3.3605   26.4790 H         1 <1>         0.0654
     37 H3         25.1244   -1.3458   26.4742 H         1 <1>         0.2921
     38 H4         27.1348    0.5360   28.3293 H         1 <1>         0.0665
     39 H5         33.0567   -0.5221   30.0665 H         1 <1>         0.0625
     40 H6         35.5325   -0.1218   30.1894 H         1 <1>         0.0654
     41 H7         37.1691    1.4127   29.1546 H         1 <1>         0.2921
     42 H8         35.5499    1.0635   26.0973 H         1 <1>         0.0654
     43 H9         33.1183    0.7006   25.9207 H         1 <1>         0.0625
     44 H10        30.6492   -1.4669   24.5090 H         1 <1>         0.0626
     45 H11        30.9672   -2.1551   22.1741 H         1 <1>         0.0654
     46 H12        34.4349   -4.4462   23.2415 H         1 <1>         0.0654
     47 H13        34.0738   -3.8848   25.6064 H         1 <1>         0.0626
     48 H14        31.8267   -2.3428   20.1503 H         1 <1>         0.0709
     49 H15        33.5869   -1.9934   20.3647 H         1 <1>         0.0709
     50 H16        32.2064   -4.1245   18.6440 H         1 <1>         0.0460
     51 H17        32.9128   -2.5840   18.0318 H         1 <1>         0.0460
     52 H18        33.4446   -5.4454   17.1140 H         1 <1>         0.0427
     53 H19        34.2237   -3.9856   16.3906 H         1 <1>         0.0427
     54 H20        35.5908   -6.4490   17.6566 H         1 <1>         0.0278
     55 H21        35.5632   -5.9906   15.9087 H         1 <1>         0.0278
     56 H22        37.7412   -5.4023   17.0735 H         1 <1>         0.0266
     57 H23        36.9068   -3.9732   16.3459 H         1 <1>         0.0266
     58 H24        36.9018   -4.8316   19.3185 H         1 <1>         0.0278
     59 H25        37.7199   -3.3855   18.6081 H         1 <1>         0.0278
     60 H26        35.5236   -2.3830   18.0136 H         1 <1>         0.0427
     61 H27        35.5894   -2.8471   19.7622 H         1 <1>         0.0427
@<TRIPOS>BOND
     1    1    2 ar
     2    1   16 ar
     3    1   35 1
     4    2    3 ar
     5    2   36 1
     6    3    4 1
     7    3    5 ar
     8    4   37 1
     9    5    6 ar
    10    5   38 1
    11    6    7 1
    12    6   16 ar
    13    7    8 1
    14    8    9 1
    15    8   17 2
    16    9   10 ar
    17    9   15 ar
    18   10   11 ar
    19   10   39 1
    20   11   12 ar
    21   11   40 1
    22   12   13 1
    23   12   14 ar
    24   13   41 1
    25   14   15 ar
    26   14   42 1
    27   15   43 1
    28   16   17 1
    29   17   18 1
    30   18   19 2
    31   18   20 1
    32   20   21 ar
    33   20   25 ar
    34   21   22 ar
    35   21   44 1
    36   22   23 ar
    37   22   45 1
    38   23   24 ar
    39   23   26 1
    40   24   25 ar
    41   24   46 1
    42   25   47 1
    43   26   27 1
    44   27   28 1
    45   27   48 1
    46   27   49 1
    47   28   29 1
    48   28   50 1
    49   28   51 1
    50   29   30 1
    51   29   34 1
    52   30   31 1
    53   30   52 1
    54   30   53 1
    55   31   32 1
    56   31   54 1
    57   31   55 1
    58   32   33 1
    59   32   56 1
    60   32   57 1
    61   33   34 1
    62   33   58 1
    63   33   59 1
    64   34   60 1
    65   34   61 1
@<TRIPOS>MOLECULE
7$ERinh1_1_ERRpdb_raloxifen
 61 65 1 0 0
SMALL
USER_CHARGES

mmff94s_NoEstat = 78.58
@<TRIPOS>ATOM
      1 C1         34.3461   -1.2289   26.7645 C.ar      1 <1>        -0.0494
      2 C2         35.5909   -0.6426   27.0333 C.ar      1 <1>        -0.0195
      3 C3         35.6737    0.4565   27.8922 C.ar      1 <1>         0.1180
      4 O1         36.9097    1.0851   28.1336 O.3       1 <1>        -0.5067
      5 C4         34.5075    1.0079   28.4218 C.ar      1 <1>        -0.0058
      6 C5         33.2629    0.4197   28.1414 C.ar      1 <1>         0.0241
      7 S1         31.6945    0.9796   28.8027 S.3       1 <1>        -0.0874
      8 C6         30.9133   -0.3553   27.8554 C.2       1 <1>         0.0313
      9 C7         29.4326   -0.4455   27.8825 C.ar      1 <1>        -0.0104
     10 C8         28.6787    0.6467   27.4169 C.ar      1 <1>        -0.0501
     11 C9         27.2850    0.5385   27.3060 C.ar      1 <1>        -0.0196
     12 C10        26.6366   -0.6697   27.6114 C.ar      1 <1>         0.1169
     13 O2         25.2419   -0.8004   27.4345 O.3       1 <1>        -0.5068
     14 C11        27.3697   -1.7176   28.1832 C.ar      1 <1>        -0.0196
     15 C12        28.7588   -1.5961   28.3366 C.ar      1 <1>        -0.0501
     16 C13        33.1638   -0.6892   27.3028 C.ar      1 <1>         0.0008
     17 C14        31.7573   -1.1363   27.1168 C.2       1 <1>         0.0447
     18 C15        31.2891   -2.2371   26.1846 C.2       1 <1>         0.1948
     19 O3         30.2119   -2.8329   26.4169 O.2       1 <1>        -0.2866
     20 C16        31.9569   -2.6017   24.9245 C.ar      1 <1>         0.0225
     21 C17        31.4740   -2.0390   23.7337 C.ar      1 <1>        -0.0475
     22 C18        32.0447   -2.4013   22.5087 C.ar      1 <1>        -0.0193
     23 C19        33.1650   -3.2453   22.4557 C.ar      1 <1>         0.1206
     24 C20        33.5930   -3.8648   23.6345 C.ar      1 <1>        -0.0193
     25 C21        32.9631   -3.5818   24.8586 C.ar      1 <1>        -0.0475
     26 O4         33.9082   -3.4770   21.2617 O.3       1 <1>        -0.4907
     27 C22        33.0874   -3.7165   20.0806 C.3       1 <1>         0.1022
     28 C23        33.9570   -4.2136   18.9172 C.3       1 <1>         0.0331
     29 N1         35.3354   -3.6163   18.8538 N.3       1 <1>        -0.2991
     30 C24        36.1614   -4.2291   17.7663 C.3       1 <1>        -0.0010
     31 C25        37.6262   -3.7895   17.9020 C.3       1 <1>        -0.0402
     32 C26        37.7475   -2.2596   17.9447 C.3       1 <1>        -0.0507
     33 C27        36.8097   -1.6532   18.9852 C.3       1 <1>        -0.0402
     34 C28        35.3684   -2.1198   18.7806 C.3       1 <1>        -0.0010
     35 H1         34.3462   -2.1130   26.1652 H         1 <1>         0.0625
     36 H2         36.4923   -1.0602   26.5945 H         1 <1>         0.0654
     37 H3         37.2543    0.7098   29.0357 H         1 <1>         0.2921
     38 H4         34.6086    1.8822   29.0442 H         1 <1>         0.0665
     39 H5         29.1698    1.5677   27.1120 H         1 <1>         0.0625
     40 H6         26.7149    1.3844   26.9536 H         1 <1>         0.0654
     41 H7         25.1447   -1.2528   26.5036 H         1 <1>         0.2921
     42 H8         26.8641   -2.6336   28.4813 H         1 <1>         0.0654
     43 H9         29.3222   -2.4211   28.7548 H         1 <1>         0.0625
     44 H10        30.6318   -1.3483   23.7511 H         1 <1>         0.0626
     45 H11        31.6151   -2.0288   21.5959 H         1 <1>         0.0654
     46 H12        34.4383   -4.5454   23.5932 H         1 <1>         0.0654
     47 H13        33.2859   -4.0996   25.7606 H         1 <1>         0.0626
     48 H14        32.2780   -4.4607   20.2857 H         1 <1>         0.0709
     49 H15        32.6200   -2.7631   19.7410 H         1 <1>         0.0709
     50 H16        34.0535   -5.3166   19.0510 H         1 <1>         0.0460
     51 H17        33.4134   -4.0354   17.9588 H         1 <1>         0.0460
     52 H18        36.1262   -5.3416   17.8375 H         1 <1>         0.0427
     53 H19        35.7654   -3.9329   16.7654 H         1 <1>         0.0427
     54 H20        38.0421   -4.2162   18.8450 H         1 <1>         0.0278
     55 H21        38.2171   -4.1901   17.0469 H         1 <1>         0.0278
     56 H22        38.7802   -1.9703   18.2342 H         1 <1>         0.0266
     57 H23        37.5207   -1.8343   16.9394 H         1 <1>         0.0266
     58 H24        37.1479   -1.9952   19.9910 H         1 <1>         0.0278
     59 H25        36.8643   -0.5407   18.9409 H         1 <1>         0.0278
     60 H26        34.9714   -1.7552   17.8036 H         1 <1>         0.0427
     61 H27        34.7621   -1.6604   19.5942 H         1 <1>         0.0427
@<TRIPOS>BOND
     1    1    2 ar
     2    1   16 ar
     3    1   35 1
     4    2    3 ar
     5    2   36 1
     6    3    4 1
     7    3    5 ar
     8    4   37 1
     9    5    6 ar
    10    5   38 1
    11    6    7 1
    12    6   16 ar
    13    7    8 1
    14    8    9 1
    15    8   17 2
    16    9   10 ar
    17    9   15 ar
    18   10   11 ar
    19   10   39 1
    20   11   12 ar
    21   11   40 1
    22   12   13 1
    23   12   14 ar
    24   13   41 1
    25   14   15 ar
    26   14   42 1
    27   15   43 1
    28   16   17 1
    29   17   18 1
    30   18   19 2
    31   18   20 1
    32   20   21 ar
    33   20   25 ar
    34   21   22 ar
    35   21   44 1
    36   22   23 ar
    37   22   45 1
    38   23   24 ar
    39   23   26 1
    40   24   25 ar
    41   24   46 1
    42   25   47 1
    43   26   27 1
    44   27   28 1
    45   27   48 1
    46   27   49 1
    47   28   29 1
    48   28   50 1
    49   28   51 1
    50   29   30 1
    51   29   34 1
    52   30   31 1
    53   30   52 1
    54   30   53 1
    55   31   32 1
    56   31   54 1
    57   31   55 1
    58   32   33 1
    59   32   56 1
    60   32   57 1
    61   33   34 1
    62   33   58 1
    63   33   59 1
    64   34   60 1
    65   34   61 1
@<TRIPOS>MOLECULE
8$ERinh1_1_ERRpdb_raloxifen
 61 65 1 0 0
SMALL
USER_CHARGES

mmff94s_NoEstat = 78.58
@<TRIPOS>ATOM
      1 C1         28.9079   -2.6500   26.7873 C.ar      1 <1>        -0.0494
      2 C2         27.5172   -2.6920   26.9697 C.ar      1 <1>        -0.0195
      3 C3         26.8471   -1.5853   27.5248 C.ar      1 <1>         0.1180
      4 O1         25.4551   -1.6301   27.7432 O.3       1 <1>        -0.5067
      5 C4         27.5647   -0.4313   27.8758 C.ar      1 <1>        -0.0058
      6 C5         28.9585   -0.4243   27.7353 C.ar      1 <1>         0.0241
      7 S1         30.0478    0.9008   28.2788 S.3       1 <1>        -0.0874
      8 C6         31.4070   -0.1791   27.7513 C.2       1 <1>         0.0313
      9 C7         32.8092    0.1938   27.9071 C.ar      1 <1>        -0.0104
     10 C8         33.5103   -0.0946   29.0911 C.ar      1 <1>        -0.0501
     11 C9         34.9004    0.0909   29.1350 C.ar      1 <1>        -0.0196
     12 C10        35.5847    0.5249   27.9956 C.ar      1 <1>         0.1169
     13 O2         36.9723    0.7725   28.0194 O.3       1 <1>        -0.5068
     14 C11        34.8746    0.7721   26.8226 C.ar      1 <1>        -0.0196
     15 C12        33.4929    0.6332   26.7697 C.ar      1 <1>        -0.0501
     16 C13        29.6218   -1.5180   27.1841 C.ar      1 <1>         0.0008
     17 C14        31.0729   -1.3452   27.1761 C.2       1 <1>         0.0447
     18 C15        32.1039   -2.3205   26.6813 C.2       1 <1>         0.1948
     19 O3         32.9105   -2.7644   27.5406 O.2       1 <1>        -0.2866
     20 C16        32.3105   -2.6969   25.2493 C.ar      1 <1>         0.0225
     21 C17        31.5186   -2.1756   24.2090 C.ar      1 <1>        -0.0475
     22 C18        31.8234   -2.4704   22.8683 C.ar      1 <1>        -0.0193
     23 C19        32.9523   -3.2428   22.5278 C.ar      1 <1>         0.1206
     24 C20        33.7015   -3.8083   23.5628 C.ar      1 <1>        -0.0193
     25 C21        33.3828   -3.5476   24.9029 C.ar      1 <1>        -0.0475
     26 O4         33.4082   -3.4899   21.1953 O.3       1 <1>        -0.4907
     27 C22        32.3921   -3.5328   20.1494 C.3       1 <1>         0.1022
     28 C23        33.0505   -3.7108   18.7673 C.3       1 <1>         0.0331
     29 N1         34.3776   -3.0194   18.5852 N.3       1 <1>        -0.2991
     30 C24        34.9293   -3.2206   17.2085 C.3       1 <1>        -0.0010
     31 C25        36.3678   -2.6894   17.1170 C.3       1 <1>        -0.0402
     32 C26        36.4793   -1.2355   17.6010 C.3       1 <1>        -0.0507
     33 C27        35.8284   -1.0589   18.9745 C.3       1 <1>        -0.0402
     34 C28        34.3849   -1.5653   18.9407 C.3       1 <1>        -0.0010
     35 H1         29.4323   -3.4930   26.3665 H         1 <1>         0.0625
     36 H2         26.9541   -3.5726   26.6689 H         1 <1>         0.0654
     37 H3         25.0616   -1.7484   26.7883 H         1 <1>         0.2921
     38 H4         27.0420    0.4427   28.2509 H         1 <1>         0.0665
     39 H5         32.9941   -0.5169   29.9493 H         1 <1>         0.0625
     40 H6         35.4716   -0.1446   30.0257 H         1 <1>         0.0654
     41 H7         37.1886    1.2244   28.9273 H         1 <1>         0.2921
     42 H8         35.3921    1.0964   25.9466 H         1 <1>         0.0654
     43 H9         32.9697    0.8254   25.8328 H         1 <1>         0.0625
     44 H10        30.6678   -1.5329   24.4257 H         1 <1>         0.0626
     45 H11        31.1806   -2.0810   22.0981 H         1 <1>         0.0654
     46 H12        34.5595   -4.4326   23.3198 H         1 <1>         0.0654
     47 H13        34.0021   -3.9969   25.6715 H         1 <1>         0.0626
     48 H14        31.6632   -4.3589   20.3335 H         1 <1>         0.0709
     49 H15        31.8384   -2.5704   20.0905 H         1 <1>         0.0709
     50 H16        33.2046   -4.8060   18.6242 H         1 <1>         0.0460
     51 H17        32.3288   -3.3749   17.9841 H         1 <1>         0.0460
     52 H18        34.9378   -4.3057   16.9536 H         1 <1>         0.0427
     53 H19        34.2937   -2.6993   16.4574 H         1 <1>         0.0427
     54 H20        37.0231   -3.3344   17.7466 H         1 <1>         0.0278
     55 H21        36.7173   -2.7519   16.0614 H         1 <1>         0.0278
     56 H22        37.5528   -0.9428   17.6624 H         1 <1>         0.0266
     57 H23        35.9739   -0.5575   16.8740 H         1 <1>         0.0266
     58 H24        36.3991   -1.6473   19.7304 H         1 <1>         0.0278
     59 H25        35.8481    0.0152   19.2722 H         1 <1>         0.0278
     60 H26        33.7857   -0.9779   18.2068 H         1 <1>         0.0427
     61 H27        33.9579   -1.3974   19.9498 H         1 <1>         0.0427
@<TRIPOS>BOND
     1    1    2 ar
     2    1   16 ar
     3    1   35 1
     4    2    3 ar
     5    2   36 1
     6    3    4 1
     7    3    5 ar
     8    4   37 1
     9    5    6 ar
    10    5   38 1
    11    6    7 1
    12    6   16 ar
    13    7    8 1
    14    8    9 1
    15    8   17 2
    16    9   10 ar
    17    9   15 ar
    18   10   11 ar
    19   10   39 1
    20   11   12 ar
    21   11   40 1
    22   12   13 1
    23   12   14 ar
    24   13   41 1
    25   14   15 ar
    26   14   42 1
    27   15   43 1
    28   16   17 1
    29   17   18 1
    30   18   19 2
    31   18   20 1
    32   20   21 ar
    33   20   25 ar
    34   21   22 ar
    35   21   44 1
    36   22   23 ar
    37   22   45 1
    38   23   24 ar
    39   23   26 1
    40   24   25 ar
    41   24   46 1
    42   25   47 1
    43   26   27 1
    44   27   28 1
    45   27   48 1
    46   27   49 1
    47   28   29 1
    48   28   50 1
    49   28   51 1
    50   29   30 1
    51   29   34 1
    52   30   31 1
    53   30   52 1
    54   30   53 1
    55   31   32 1
    56   31   54 1
    57   31   55 1
    58   32   33 1
    59   32   56 1
    60   32   57 1
    61   33   34 1
    62   33   58 1
    63   33   59 1
    64   34   60 1
    65   34   61 1
@<TRIPOS>MOLECULE
9$ERinh1_1_ERRpdb_raloxifen
 61 65 1 0 0
SMALL
USER_CHARGES

mmff94s_NoEstat = 78.58
@<TRIPOS>ATOM
      1 C1         28.7941   -2.4189   26.6883 C.ar      1 <1>        -0.0494
      2 C2         27.3899   -2.3162   26.7766 C.ar      1 <1>        -0.0195
      3 C3         26.7920   -1.1170   27.2047 C.ar      1 <1>         0.1180
      4 O1         25.3847   -1.0289   27.3376 O.3       1 <1>        -0.5067
      5 C4         27.5941   -0.0221   27.5707 C.ar      1 <1>        -0.0058
      6 C5         28.9914   -0.1442   27.4982 C.ar      1 <1>         0.0241
      7 S1         30.1590    1.1096   28.0515 S.3       1 <1>        -0.0874
      8 C6         31.4603   -0.0634   27.5816 C.2       1 <1>         0.0313
      9 C7         32.8868    0.2319   27.7834 C.ar      1 <1>        -0.0104
     10 C8         33.4775    0.0556   29.0473 C.ar      1 <1>        -0.0501
     11 C9         34.8628    0.2266   29.1945 C.ar      1 <1>        -0.0196
     12 C10        35.6482    0.5930   28.1005 C.ar      1 <1>         0.1169
     13 O2         37.0196    0.8758   28.2620 O.3       1 <1>        -0.5068
     14 C11        35.0675    0.6827   26.8363 C.ar      1 <1>        -0.0196
     15 C12        33.6889    0.5250   26.6697 C.ar      1 <1>        -0.0501
     16 C13        29.5843   -1.3118   27.0268 C.ar      1 <1>         0.0008
     17 C14        31.0513   -1.2208   27.0343 C.2       1 <1>         0.0447
     18 C15        32.0349   -2.2489   26.5755 C.2       1 <1>         0.1948
     19 O3         32.8011   -2.7194   27.4575 O.2       1 <1>        -0.2866
     20 C16        32.2590   -2.6404   25.1500 C.ar      1 <1>         0.0225
     21 C17        31.4648   -2.1559   24.0894 C.ar      1 <1>        -0.0475
     22 C18        31.7353   -2.5538   22.7658 C.ar      1 <1>        -0.0193
     23 C19        32.8269   -3.3776   22.4726 C.ar      1 <1>         0.1206
     24 C20        33.6247   -3.8545   23.5133 C.ar      1 <1>        -0.0193
     25 C21        33.3414   -3.4946   24.8381 C.ar      1 <1>        -0.0475
     26 O4         33.0402   -3.8471   21.1488 O.3       1 <1>        -0.4907
     27 C22        33.8383   -2.8952   20.4070 C.3       1 <1>         0.1022
     28 C23        34.3218   -3.5046   19.0908 C.3       1 <1>         0.0331
     29 N1         35.0333   -2.5100   18.2107 N.3       1 <1>        -0.2991
     30 C24        36.3163   -2.0158   18.8097 C.3       1 <1>        -0.0010
     31 C25        37.0361   -1.0086   17.9084 C.3       1 <1>        -0.0402
     32 C26        37.2541   -1.5848   16.5095 C.3       1 <1>        -0.0507
     33 C27        35.9222   -2.0525   15.9189 C.3       1 <1>        -0.0402
     34 C28        35.2410   -3.0727   16.8379 C.3       1 <1>        -0.0010
     35 H1         29.2559   -3.3537   26.3955 H         1 <1>         0.0625
     36 H2         26.7649   -3.1693   26.5200 H         1 <1>         0.0654
     37 H3         25.0176   -1.1210   26.3697 H         1 <1>         0.2921
     38 H4         27.1418    0.8995   27.9229 H         1 <1>         0.0665
     39 H5         32.8748   -0.2491   29.9004 H         1 <1>         0.0625
     40 H6         35.3582    0.0544   30.1405 H         1 <1>         0.0654
     41 H7         37.4342    0.0465   28.7223 H         1 <1>         0.2921
     42 H8         35.6912    0.9099   25.9908 H         1 <1>         0.0654
     43 H9         33.2497    0.6205   25.6774 H         1 <1>         0.0625
     44 H10        30.6217   -1.4944   24.2783 H         1 <1>         0.0626
     45 H11        31.0924   -2.2489   21.9504 H         1 <1>         0.0654
     46 H12        34.4546   -4.5214   23.2908 H         1 <1>         0.0654
     47 H13        33.9762   -3.8948   25.6215 H         1 <1>         0.0626
     48 H14        33.2248   -2.0018   20.1589 H         1 <1>         0.0709
     49 H15        34.7242   -2.6030   21.0126 H         1 <1>         0.0709
     50 H16        34.9783   -4.3774   19.3168 H         1 <1>         0.0460
     51 H17        33.4150   -3.8923   18.5669 H         1 <1>         0.0460
     52 H18        36.0882   -1.4647   19.7425 H         1 <1>         0.0427
     53 H19        36.9953   -2.8676   19.0505 H         1 <1>         0.0427
     54 H20        36.4191   -0.0814   17.8340 H         1 <1>         0.0278
     55 H21        38.0167   -0.7368   18.3634 H         1 <1>         0.0278
     56 H22        37.6946   -0.7987   15.8545 H         1 <1>         0.0266
     57 H23        37.9636   -2.4429   16.5627 H         1 <1>         0.0266
     58 H24        35.2524   -1.1693   15.8058 H         1 <1>         0.0278
     59 H25        36.0895   -2.5031   14.9137 H         1 <1>         0.0278
     60 H26        35.8554   -4.0030   16.8851 H         1 <1>         0.0427
     61 H27        34.2550   -3.3331   16.3851 H         1 <1>         0.0427
@<TRIPOS>BOND
     1    1    2 ar
     2    1   16 ar
     3    1   35 1
     4    2    3 ar
     5    2   36 1
     6    3    4 1
     7    3    5 ar
     8    4   37 1
     9    5    6 ar
    10    5   38 1
    11    6    7 1
    12    6   16 ar
    13    7    8 1
    14    8    9 1
    15    8   17 2
    16    9   10 ar
    17    9   15 ar
    18   10   11 ar
    19   10   39 1
    20   11   12 ar
    21   11   40 1
    22   12   13 1
    23   12   14 ar
    24   13   41 1
    25   14   15 ar
    26   14   42 1
    27   15   43 1
    28   16   17 1
    29   17   18 1
    30   18   19 2
    31   18   20 1
    32   20   21 ar
    33   20   25 ar
    34   21   22 ar
    35   21   44 1
    36   22   23 ar
    37   22   45 1
    38   23   24 ar
    39   23   26 1
    40   24   25 ar
    41   24   46 1
    42   25   47 1
    43   26   27 1
    44   27   28 1
    45   27   48 1
    46   27   49 1
    47   28   29 1
    48   28   50 1
    49   28   51 1
    50   29   30 1
    51   29   34 1
    52   30   31 1
    53   30   52 1
    54   30   53 1
    55   31   32 1
    56   31   54 1
    57   31   55 1
    58   32   33 1
    59   32   56 1
    60   32   57 1
    61   33   34 1
    62   33   58 1
    63   33   59 1
    64   34   60 1
    65   34   61 1
@<TRIPOS>MOLECULE
10$ERinh1_1_ERRpdb_raloxifen
 61 65 1 0 0
SMALL
USER_CHARGES

mmff94s_NoEstat = 78.58
@<TRIPOS>ATOM
      1 C1         28.8974   -2.5734   26.7700 C.ar      1 <1>        -0.0494
      2 C2         27.4937   -2.5241   26.8434 C.ar      1 <1>        -0.0195
      3 C3         26.8561   -1.3890   27.3846 C.ar      1 <1>         0.1180
      4 O1         25.4480   -1.3192   27.4622 O.3       1 <1>        -0.5067
      5 C4         27.6247   -0.3258   27.8862 C.ar      1 <1>        -0.0058
      6 C5         29.0226   -0.3948   27.8166 C.ar      1 <1>         0.0241
      7 S1         30.1530    0.8435   28.4743 S.3       1 <1>        -0.0874
      8 C6         31.4909   -0.2213   27.8633 C.2       1 <1>         0.0313
      9 C7         32.9093    0.1327   28.0083 C.ar      1 <1>        -0.0104
     10 C8         33.5912   -0.1209   29.2096 C.ar      1 <1>        -0.0501
     11 C9         34.9768    0.0938   29.2843 C.ar      1 <1>        -0.0196
     12 C10        35.6783    0.5603   28.1685 C.ar      1 <1>         0.1169
     13 O2         37.0425    0.9123   28.2552 O.3       1 <1>        -0.5068
     14 C11        35.0014    0.7466   26.9642 C.ar      1 <1>        -0.0196
     15 C12        33.6227    0.5496   26.8748 C.ar      1 <1>        -0.0501
     16 C13        29.6554   -1.4912   27.2345 C.ar      1 <1>         0.0008
     17 C14        31.1176   -1.3548   27.2463 C.2       1 <1>         0.0447
     18 C15        32.1380   -2.3161   26.7082 C.2       1 <1>         0.1948
     19 O3         32.9502   -2.7929   27.5392 O.2       1 <1>        -0.2866
     20 C16        32.3166   -2.6460   25.2616 C.ar      1 <1>         0.0225
     21 C17        31.4776   -2.1281   24.2602 C.ar      1 <1>        -0.0475
     22 C18        31.6717   -2.4922   22.9165 C.ar      1 <1>        -0.0193
     23 C19        32.7280   -3.3407   22.5376 C.ar      1 <1>         0.1206
     24 C20        33.6076   -3.7959   23.5205 C.ar      1 <1>        -0.0193
     25 C21        33.3933   -3.4747   24.8693 C.ar      1 <1>        -0.0475
     26 O4         32.9051   -3.8195   21.2051 O.3       1 <1>        -0.4907
     27 C22        32.8421   -2.7954   20.1786 C.3       1 <1>         0.1022
     28 C23        33.0436   -3.3978   18.7841 C.3       1 <1>         0.0331
     29 N1         34.3441   -4.1101   18.5459 N.3       1 <1>        -0.2991
     30 C24        34.3206   -4.7573   17.1919 C.3       1 <1>        -0.0010
     31 C25        35.5833   -5.5881   16.9478 C.3       1 <1>        -0.0402
     32 C26        36.8460   -4.7443   17.1489 C.3       1 <1>        -0.0507
     33 C27        36.8357   -4.0569   18.5181 C.3       1 <1>        -0.0402
     34 C28        35.5520   -3.2439   18.7226 C.3       1 <1>        -0.0010
     35 H1         29.3947   -3.4462   26.3714 H         1 <1>         0.0625
     36 H2         26.8980   -3.3605   26.4790 H         1 <1>         0.0654
     37 H3         25.1244   -1.3458   26.4742 H         1 <1>         0.2921
     38 H4         27.1348    0.5360   28.3293 H         1 <1>         0.0665
     39 H5         33.0567   -0.5221   30.0665 H         1 <1>         0.0625
     40 H6         35.5325   -0.1218   30.1894 H         1 <1>         0.0654
     41 H7         37.1691    1.4127   29.1546 H         1 <1>         0.2921
     42 H8         35.5499    1.0635   26.0973 H         1 <1>         0.0654
     43 H9         33.1183    0.7006   25.9207 H         1 <1>         0.0625
     44 H10        30.6492   -1.4669   24.5090 H         1 <1>         0.0626
     45 H11        30.9672   -2.1551   22.1741 H         1 <1>         0.0654
     46 H12        34.4349   -4.4462   23.2415 H         1 <1>         0.0654
     47 H13        34.0738   -3.8848   25.6064 H         1 <1>         0.0626
     48 H14        31.8267   -2.3428   20.1503 H         1 <1>         0.0709
     49 H15        33.5869   -1.9934   20.3647 H         1 <1>         0.0709
     50 H16        32.2064   -4.1245   18.6440 H         1 <1>         0.0460
     51 H17        32.9128   -2.5840   18.0318 H         1 <1>         0.0460
     52 H18        33.4446   -5.4454   17.1140 H         1 <1>         0.0427
     53 H19        34.2237   -3.9856   16.3906 H         1 <1>         0.0427
     54 H20        35.5908   -6.4490   17.6566 H         1 <1>         0.0278
     55 H21        35.5632   -5.9906   15.9087 H         1 <1>         0.0278
     56 H22        37.7412   -5.4023   17.0735 H         1 <1>         0.0266
     57 H23        36.9068   -3.9732   16.3459 H         1 <1>         0.0266
     58 H24        36.9018   -4.8316   19.3185 H         1 <1>         0.0278
     59 H25        37.7199   -3.3855   18.6081 H         1 <1>         0.0278
     60 H26        35.5236   -2.3830   18.0136 H         1 <1>         0.0427
     61 H27        35.5894   -2.8471   19.7622 H         1 <1>         0.0427
@<TRIPOS>BOND
     1    1    2 ar
     2    1   16 ar
     3    1   35 1
     4    2    3 ar
     5    2   36 1
     6    3    4 1
     7    3    5 ar
     8    4   37 1
     9    5    6 ar
    10    5   38 1
    11    6    7 1
    12    6   16 ar
    13    7    8 1
    14    8    9 1
    15    8   17 2
    16    9   10 ar
    17    9   15 ar
    18   10   11 ar
    19   10   39 1
    20   11   12 ar
    21   11   40 1
    22   12   13 1
    23   12   14 ar
    24   13   41 1
    25   14   15 ar
    26   14   42 1
    27   15   43 1
    28   16   17 1
    29   17   18 1
    30   18   19 2
    31   18   20 1
    32   20   21 ar
    33   20   25 ar
    34   21   22 ar
    35   21   44 1
    36   22   23 ar
    37   22   45 1
    38   23   24 ar
    39   23   26 1
    40   24   25 ar
    41   24   46 1
    42   25   47 1
    43   26   27 1
    44   27   28 1
    45   27   48 1
    46   27   49 1
    47   28   29 1
    48   28   50 1
    49   28   51 1
    50   29   30 1
    51   29   34 1
    52   30   31 1
    53   30   52 1
    54   30   53 1
    55   31   32 1
    56   31   54 1
    57   31   55 1
    58   32   33 1
    59   32   56 1
    60   32   57 1
    61   33   34 1
    62   33   58 1
    63   33   59 1
    64   34   60 1
    65   34   61 1
@<TRIPOS>MOLECULE
11$ER1_ERRpdb_raloxifen
 61 65 1 0 0
SMALL
USER_CHARGES

mmff94s_NoEstat = 78.58
@<TRIPOS>ATOM
      1 C1         34.3461   -1.2289   26.7645 C.ar      1 <1>        -0.0494
      2 C2         35.5909   -0.6426   27.0333 C.ar      1 <1>        -0.0195
      3 C3         35.6737    0.4565   27.8922 C.ar      1 <1>         0.1180
      4 O1         36.9097    1.0851   28.1336 O.3       1 <1>        -0.5067
      5 C4         34.5075    1.0079   28.4218 C.ar      1 <1>        -0.0058
      6 C5         33.2629    0.4197   28.1414 C.ar      1 <1>         0.0241
      7 S1         31.6945    0.9796   28.8027 S.3       1 <1>        -0.0874
      8 C6         30.9133   -0.3553   27.8554 C.2       1 <1>         0.0313
      9 C7         29.4326   -0.4455   27.8825 C.ar      1 <1>        -0.0104
     10 C8         28.6787    0.6467   27.4169 C.ar      1 <1>        -0.0501
     11 C9         27.2850    0.5385   27.3060 C.ar      1 <1>        -0.0196
     12 C10        26.6366   -0.6697   27.6114 C.ar      1 <1>         0.1169
     13 O2         25.2419   -0.8004   27.4345 O.3       1 <1>        -0.5068
     14 C11        27.3697   -1.7176   28.1832 C.ar      1 <1>        -0.0196
     15 C12        28.7588   -1.5961   28.3366 C.ar      1 <1>        -0.0501
     16 C13        33.1638   -0.6892   27.3028 C.ar      1 <1>         0.0008
     17 C14        31.7573   -1.1363   27.1168 C.2       1 <1>         0.0447
     18 C15        31.2891   -2.2371   26.1846 C.2       1 <1>         0.1948
     19 O3         30.2119   -2.8329   26.4169 O.2       1 <1>        -0.2866
     20 C16        31.9569   -2.6017   24.9245 C.ar      1 <1>         0.0225
     21 C17        31.4740   -2.0390   23.7337 C.ar      1 <1>        -0.0475
     22 C18        32.0447   -2.4013   22.5087 C.ar      1 <1>        -0.0193
     23 C19        33.1650   -3.2453   22.4557 C.ar      1 <1>         0.1206
     24 C20        33.5930   -3.8648   23.6345 C.ar      1 <1>        -0.0193
     25 C21        32.9631   -3.5818   24.8586 C.ar      1 <1>        -0.0475
     26 O4         33.9082   -3.4770   21.2617 O.3       1 <1>        -0.4907
     27 C22        33.0874   -3.7165   20.0806 C.3       1 <1>         0.1022
     28 C23        33.9570   -4.2136   18.9172 C.3       1 <1>         0.0331
     29 N1         35.3354   -3.6163   18.8538 N.3       1 <1>        -0.2991
     30 C24        36.1614   -4.2291   17.7663 C.3       1 <1>        -0.0010
     31 C25        37.6262   -3.7895   17.9020 C.3       1 <1>        -0.0402
     32 C26        37.7475   -2.2596   17.9447 C.3       1 <1>        -0.0507
     33 C27        36.8097   -1.6532   18.9852 C.3       1 <1>        -0.0402
     34 C28        35.3684   -2.1198   18.7806 C.3       1 <1>        -0.0010
     35 H1         34.3462   -2.1130   26.1652 H         1 <1>         0.0625
     36 H2         36.4923   -1.0602   26.5945 H         1 <1>         0.0654
     37 H3         37.2543    0.7098   29.0357 H         1 <1>         0.2921
     38 H4         34.6086    1.8822   29.0442 H         1 <1>         0.0665
     39 H5         29.1698    1.5677   27.1120 H         1 <1>         0.0625
     40 H6         26.7149    1.3844   26.9536 H         1 <1>         0.0654
     41 H7         25.1447   -1.2528   26.5036 H         1 <1>         0.2921
     42 H8         26.8641   -2.6336   28.4813 H         1 <1>         0.0654
     43 H9         29.3222   -2.4211   28.7548 H         1 <1>         0.0625
     44 H10        30.6318   -1.3483   23.7511 H         1 <1>         0.0626
     45 H11        31.6151   -2.0288   21.5959 H         1 <1>         0.0654
     46 H12        34.4383   -4.5454   23.5932 H         1 <1>         0.0654
     47 H13        33.2859   -4.0996   25.7606 H         1 <1>         0.0626
     48 H14        32.2780   -4.4607   20.2857 H         1 <1>         0.0709
     49 H15        32.6200   -2.7631   19.7410 H         1 <1>         0.0709
     50 H16        34.0535   -5.3166   19.0510 H         1 <1>         0.0460
     51 H17        33.4134   -4.0354   17.9588 H         1 <1>         0.0460
     52 H18        36.1262   -5.3416   17.8375 H         1 <1>         0.0427
     53 H19        35.7654   -3.9329   16.7654 H         1 <1>         0.0427
     54 H20        38.0421   -4.2162   18.8450 H         1 <1>         0.0278
     55 H21        38.2171   -4.1901   17.0469 H         1 <1>         0.0278
     56 H22        38.7802   -1.9703   18.2342 H         1 <1>         0.0266
     57 H23        37.5207   -1.8343   16.9394 H         1 <1>         0.0266
     58 H24        37.1479   -1.9952   19.9910 H         1 <1>         0.0278
     59 H25        36.8643   -0.5407   18.9409 H         1 <1>         0.0278
     60 H26        34.9714   -1.7552   17.8036 H         1 <1>         0.0427
     61 H27        34.7621   -1.6604   19.5942 H         1 <1>         0.0427
@<TRIPOS>BOND
     1    1    2 ar
     2    1   16 ar
     3    1   35 1
     4    2    3 ar
     5    2   36 1
     6    3    4 1
     7    3    5 ar
     8    4   37 1
     9    5    6 ar
    10    5   38 1
    11    6    7 1
    12    6   16 ar
    13    7    8 1
    14    8    9 1
    15    8   17 2
    16    9   10 ar
    17    9   15 ar
    18   10   11 ar
    19   10   39 1
    20   11   12 ar
    21   11   40 1
    22   12   13 1
    23   12   14 ar
    24   13   41 1
    25   14   15 ar
    26   14   42 1
    27   15   43 1
    28   16   17 1
    29   17   18 1
    30   18   19 2
    31   18   20 1
    32   20   21 ar
    33   20   25 ar
    34   21   22 ar
    35   21   44 1
    36   22   23 ar
    37   22   45 1
    38   23   24 ar
    39   23   26 1
    40   24   25 ar
    41   24   46 1
    42   25   47 1
    43   26   27 1
    44   27   28 1
    45   27   48 1
    46   27   49 1
    47   28   29 1
    48   28   50 1
    49   28   51 1
    50   29   30 1
    51   29   34 1
    52   30   31 1
    53   30   52 1
    54   30   53 1
    55   31   32 1
    56   31   54 1
    57   31   55 1
    58   32   33 1
    59   32   56 1
    60   32   57 1
    61   33   34 1
    62   33   58 1
    63   33   59 1
    64   34   60 1
    65   34   61 1
@<TRIPOS>MOLECULE
12$ER1_ERRpdb_raloxifen
 61 65 1 0 0
SMALL
USER_CHARGES

mmff94s_NoEstat = 78.58
@<TRIPOS>ATOM
      1 C1         28.9079   -2.6500   26.7873 C.ar      1 <1>        -0.0494
      2 C2         27.5172   -2.6920   26.9697 C.ar      1 <1>        -0.0195
      3 C3         26.8471   -1.5853   27.5248 C.ar      1 <1>         0.1180
      4 O1         25.4551   -1.6301   27.7432 O.3       1 <1>        -0.5067
      5 C4         27.5647   -0.4313   27.8758 C.ar      1 <1>        -0.0058
      6 C5         28.9585   -0.4243   27.7353 C.ar      1 <1>         0.0241
      7 S1         30.0478    0.9008   28.2788 S.3       1 <1>        -0.0874
      8 C6         31.4070   -0.1791   27.7513 C.2       1 <1>         0.0313
      9 C7         32.8092    0.1938   27.9071 C.ar      1 <1>        -0.0104
     10 C8         33.5103   -0.0946   29.0911 C.ar      1 <1>        -0.0501
     11 C9         34.9004    0.0909   29.1350 C.ar      1 <1>        -0.0196
     12 C10        35.5847    0.5249   27.9956 C.ar      1 <1>         0.1169
     13 O2         36.9723    0.7725   28.0194 O.3       1 <1>        -0.5068
     14 C11        34.8746    0.7721   26.8226 C.ar      1 <1>        -0.0196
     15 C12        33.4929    0.6332   26.7697 C.ar      1 <1>        -0.0501
     16 C13        29.6218   -1.5180   27.1841 C.ar      1 <1>         0.0008
     17 C14        31.0729   -1.3452   27.1761 C.2       1 <1>         0.0447
     18 C15        32.1039   -2.3205   26.6813 C.2       1 <1>         0.1948
     19 O3         32.9105   -2.7644   27.5406 O.2       1 <1>        -0.2866
     20 C16        32.3105   -2.6969   25.2493 C.ar      1 <1>         0.0225
     21 C17        31.5186   -2.1756   24.2090 C.ar      1 <1>        -0.0475
     22 C18        31.8234   -2.4704   22.8683 C.ar      1 <1>        -0.0193
     23 C19        32.9523   -3.2428   22.5278 C.ar      1 <1>         0.1206
     24 C20        33.7015   -3.8083   23.5628 C.ar      1 <1>        -0.0193
     25 C21        33.3828   -3.5476   24.9029 C.ar      1 <1>        -0.0475
     26 O4         33.4082   -3.4899   21.1953 O.3       1 <1>        -0.4907
     27 C22        32.3921   -3.5328   20.1494 C.3       1 <1>         0.1022
     28 C23        33.0505   -3.7108   18.7673 C.3       1 <1>         0.0331
     29 N1         34.3776   -3.0194   18.5852 N.3       1 <1>        -0.2991
     30 C24        34.9293   -3.2206   17.2085 C.3       1 <1>        -0.0010
     31 C25        36.3678   -2.6894   17.1170 C.3       1 <1>        -0.0402
     32 C26        36.4793   -1.2355   17.6010 C.3       1 <1>        -0.0507
     33 C27        35.8284   -1.0589   18.9745 C.3       1 <1>        -0.0402
     34 C28        34.3849   -1.5653   18.9407 C.3       1 <1>        -0.0010
     35 H1         29.4323   -3.4930   26.3665 H         1 <1>         0.0625
     36 H2         26.9541   -3.5726   26.6689 H         1 <1>         0.0654
     37 H3         25.0616   -1.7484   26.7883 H         1 <1>         0.2921
     38 H4         27.0420    0.4427   28.2509 H         1 <1>         0.0665
     39 H5         32.9941   -0.5169   29.9493 H         1 <1>         0.0625
     40 H6         35.4716   -0.1446   30.0257 H         1 <1>         0.0654
     41 H7         37.1886    1.2244   28.9273 H         1 <1>         0.2921
     42 H8         35.3921    1.0964   25.9466 H         1 <1>         0.0654
     43 H9         32.9697    0.8254   25.8328 H         1 <1>         0.0625
     44 H10        30.6678   -1.5329   24.4257 H         1 <1>         0.0626
     45 H11        31.1806   -2.0810   22.0981 H         1 <1>         0.0654
     46 H12        34.5595   -4.4326   23.3198 H         1 <1>         0.0654
     47 H13        34.0021   -3.9969   25.6715 H         1 <1>         0.0626
     48 H14        31.6632   -4.3589   20.3335 H         1 <1>         0.0709
     49 H15        31.8384   -2.5704   20.0905 H         1 <1>         0.0709
     50 H16        33.2046   -4.8060   18.6242 H         1 <1>         0.0460
     51 H17        32.3288   -3.3749   17.9841 H         1 <1>         0.0460
     52 H18        34.9378   -4.3057   16.9536 H         1 <1>         0.0427
     53 H19        34.2937   -2.6993   16.4574 H         1 <1>         0.0427
     54 H20        37.0231   -3.3344   17.7466 H         1 <1>         0.0278
     55 H21        36.7173   -2.7519   16.0614 H         1 <1>         0.0278
     56 H22        37.5528   -0.9428   17.6624 H         1 <1>         0.0266
     57 H23        35.9739   -0.5575   16.8740 H         1 <1>         0.0266
     58 H24        36.3991   -1.6473   19.7304 H         1 <1>         0.0278
     59 H25        35.8481    0.0152   19.2722 H         1 <1>         0.0278
     60 H26        33.7857   -0.9779   18.2068 H         1 <1>         0.0427
     61 H27        33.9579   -1.3974   19.9498 H         1 <1>         0.0427
@<TRIPOS>BOND
     1    1    2 ar
     2    1   16 ar
     3    1   35 1
     4    2    3 ar
     5    2   36 1
     6    3    4 1
     7    3    5 ar
     8    4   37 1
     9    5    6 ar
    10    5   38 1
    11    6    7 1
    12    6   16 ar
    13    7    8 1
    14    8    9 1
    15    8   17 2
    16    9   10 ar
    17    9   15 ar
    18   10   11 ar
    19   10   39 1
    20   11   12 ar
    21   11   40 1
    22   12   13 1
    23   12   14 ar
    24   13   41 1
    25   14   15 ar
    26   14   42 1
    27   15   43 1
    28   16   17 1
    29   17   18 1
    30   18   19 2
    31   18   20 1
    32   20   21 ar
    33   20   25 ar
    34   21   22 ar
    35   21   44 1
    36   22   23 ar
    37   22   45 1
    38   23   24 ar
    39   23   26 1
    40   24   25 ar
    41   24   46 1
    42   25   47 1
    43   26   27 1
    44   27   28 1
    45   27   48 1
    46   27   49 1
    47   28   29 1
    48   28   50 1
    49   28   51 1
    50   29   30 1
    51   29   34 1
    52   30   31 1
    53   30   52 1
    54   30   53 1
    55   31   32 1
    56   31   54 1
    57   31   55 1
    58   32   33 1
    59   32   56 1
    60   32   57 1
    61   33   34 1
    62   33   58 1
    63   33   59 1
    64   34   60 1
    65   34   61 1
@<TRIPOS>MOLECULE
13$ER1_ERRpdb_raloxifen
 61 65 1 0 0
SMALL
USER_CHARGES

mmff94s_NoEstat = 78.58
@<TRIPOS>ATOM
      1 C1         28.7941   -2.4189   26.6883 C.ar      1 <1>        -0.0494
      2 C2         27.3899   -2.3162   26.7766 C.ar      1 <1>        -0.0195
      3 C3         26.7920   -1.1170   27.2047 C.ar      1 <1>         0.1180
      4 O1         25.3847   -1.0289   27.3376 O.3       1 <1>        -0.5067
      5 C4         27.5941   -0.0221   27.5707 C.ar      1 <1>        -0.0058
      6 C5         28.9914   -0.1442   27.4982 C.ar      1 <1>         0.0241
      7 S1         30.1590    1.1096   28.0515 S.3       1 <1>        -0.0874
      8 C6         31.4603   -0.0634   27.5816 C.2       1 <1>         0.0313
      9 C7         32.8868    0.2319   27.7834 C.ar      1 <1>        -0.0104
     10 C8         33.4775    0.0556   29.0473 C.ar      1 <1>        -0.0501
     11 C9         34.8628    0.2266   29.1945 C.ar      1 <1>        -0.0196
     12 C10        35.6482    0.5930   28.1005 C.ar      1 <1>         0.1169
     13 O2         37.0196    0.8758   28.2620 O.3       1 <1>        -0.5068
     14 C11        35.0675    0.6827   26.8363 C.ar      1 <1>        -0.0196
     15 C12        33.6889    0.5250   26.6697 C.ar      1 <1>        -0.0501
     16 C13        29.5843   -1.3118   27.0268 C.ar      1 <1>         0.0008
     17 C14        31.0513   -1.2208   27.0343 C.2       1 <1>         0.0447
     18 C15        32.0349   -2.2489   26.5755 C.2       1 <1>         0.1948
     19 O3         32.8011   -2.7194   27.4575 O.2       1 <1>        -0.2866
     20 C16        32.2590   -2.6404   25.1500 C.ar      1 <1>         0.0225
     21 C17        31.4648   -2.1559   24.0894 C.ar      1 <1>        -0.0475
     22 C18        31.7353   -2.5538   22.7658 C.ar      1 <1>        -0.0193
     23 C19        32.8269   -3.3776   22.4726 C.ar      1 <1>         0.1206
     24 C20        33.6247   -3.8545   23.5133 C.ar      1 <1>        -0.0193
     25 C21        33.3414   -3.4946   24.8381 C.ar      1 <1>        -0.0475
     26 O4         33.0402   -3.8471   21.1488 O.3       1 <1>        -0.4907
     27 C22        33.8383   -2.8952   20.4070 C.3       1 <1>         0.1022
     28 C23        34.3218   -3.5046   19.0908 C.3       1 <1>         0.0331
     29 N1         35.0333   -2.5100   18.2107 N.3       1 <1>        -0.2991
     30 C24        36.3163   -2.0158   18.8097 C.3       1 <1>        -0.0010
     31 C25        37.0361   -1.0086   17.9084 C.3       1 <1>        -0.0402
     32 C26        37.2541   -1.5848   16.5095 C.3       1 <1>        -0.0507
     33 C27        35.9222   -2.0525   15.9189 C.3       1 <1>        -0.0402
     34 C28        35.2410   -3.0727   16.8379 C.3       1 <1>        -0.0010
     35 H1         29.2559   -3.3537   26.3955 H         1 <1>         0.0625
     36 H2         26.7649   -3.1693   26.5200 H         1 <1>         0.0654
     37 H3         25.0176   -1.1210   26.3697 H         1 <1>         0.2921
     38 H4         27.1418    0.8995   27.9229 H         1 <1>         0.0665
     39 H5         32.8748   -0.2491   29.9004 H         1 <1>         0.0625
     40 H6         35.3582    0.0544   30.1405 H         1 <1>         0.0654
     41 H7         37.4342    0.0465   28.7223 H         1 <1>         0.2921
     42 H8         35.6912    0.9099   25.9908 H         1 <1>         0.0654
     43 H9         33.2497    0.6205   25.6774 H         1 <1>         0.0625
     44 H10        30.6217   -1.4944   24.2783 H         1 <1>         0.0626
     45 H11        31.0924   -2.2489   21.9504 H         1 <1>         0.0654
     46 H12        34.4546   -4.5214   23.2908 H         1 <1>         0.0654
     47 H13        33.9762   -3.8948   25.6215 H         1 <1>         0.0626
     48 H14        33.2248   -2.0018   20.1589 H         1 <1>         0.0709
     49 H15        34.7242   -2.6030   21.0126 H         1 <1>         0.0709
     50 H16        34.9783   -4.3774   19.3168 H         1 <1>         0.0460
     51 H17        33.4150   -3.8923   18.5669 H         1 <1>         0.0460
     52 H18        36.0882   -1.4647   19.7425 H         1 <1>         0.0427
     53 H19        36.9953   -2.8676   19.0505 H         1 <1>         0.0427
     54 H20        36.4191   -0.0814   17.8340 H         1 <1>         0.0278
     55 H21        38.0167   -0.7368   18.3634 H         1 <1>         0.0278
     56 H22        37.6946   -0.7987   15.8545 H         1 <1>         0.0266
     57 H23        37.9636   -2.4429   16.5627 H         1 <1>         0.0266
     58 H24        35.2524   -1.1693   15.8058 H         1 <1>         0.0278
     59 H25        36.0895   -2.5031   14.9137 H         1 <1>         0.0278
     60 H26        35.8554   -4.0030   16.8851 H         1 <1>         0.0427
     61 H27        34.2550   -3.3331   16.3851 H         1 <1>         0.0427
@<TRIPOS>BOND
     1    1    2 ar
     2    1   16 ar
     3    1   35 1
     4    2    3 ar
     5    2   36 1
     6    3    4 1
     7    3    5 ar
     8    4   37 1
     9    5    6 ar
    10    5   38 1
    11    6    7 1
    12    6   16 ar
    13    7    8 1
    14    8    9 1
    15    8   17 2
    16    9   10 ar
    17    9   15 ar
    18   10   11 ar
    19   10   39 1
    20   11   12 ar
    21   11   40 1
    22   12   13 1
    23   12   14 ar
    24   13   41 1
    25   14   15 ar
    26   14   42 1
    27   15   43 1
    28   16   17 1
    29   17   18 1
    30   18   19 2
    31   18   20 1
    32   20   21 ar
    33   20   25 ar
    34   21   22 ar
    35   21   44 1
    36   22   23 ar
    37   22   45 1
    38   23   24 ar
    39   23   26 1
    40   24   25 ar
    41   24   46 1
    42   25   47 1
    43   26   27 1
    44   27   28 1
    45   27   48 1
    46   27   49 1
    47   28   29 1
    48   28   50 1
    49   28   51 1
    50   29   30 1
    51   29   34 1
    52   30   31 1
    53   30   52 1
    54   30   53 1
    55   31   32 1
    56   31   54 1
    57   31   55 1
    58   32   33 1
    59   32   56 1
    60   32   57 1
    61   33   34 1
    62   33   58 1
    63   33   59 1
    64   34   60 1
    65   34   61 1
@<TRIPOS>MOLECULE
14$ER1_ERRpdb_raloxifen
 61 65 1 0 0
SMALL
USER_CHARGES

mmff94s_NoEstat = 78.58
@<TRIPOS>ATOM
      1 C1         28.8974   -2.5734   26.7700 C.ar      1 <1>        -0.0494
      2 C2         27.4937   -2.5241   26.8434 C.ar      1 <1>        -0.0195
      3 C3         26.8561   -1.3890   27.3846 C.ar      1 <1>         0.1180
      4 O1         25.4480   -1.3192   27.4622 O.3       1 <1>        -0.5067
      5 C4         27.6247   -0.3258   27.8862 C.ar      1 <1>        -0.0058
      6 C5         29.0226   -0.3948   27.8166 C.ar      1 <1>         0.0241
      7 S1         30.1530    0.8435   28.4743 S.3       1 <1>        -0.0874
      8 C6         31.4909   -0.2213   27.8633 C.2       1 <1>         0.0313
      9 C7         32.9093    0.1327   28.0083 C.ar      1 <1>        -0.0104
     10 C8         33.5912   -0.1209   29.2096 C.ar      1 <1>        -0.0501
     11 C9         34.9768    0.0938   29.2843 C.ar      1 <1>        -0.0196
     12 C10        35.6783    0.5603   28.1685 C.ar      1 <1>         0.1169
     13 O2         37.0425    0.9123   28.2552 O.3       1 <1>        -0.5068
     14 C11        35.0014    0.7466   26.9642 C.ar      1 <1>        -0.0196
     15 C12        33.6227    0.5496   26.8748 C.ar      1 <1>        -0.0501
     16 C13        29.6554   -1.4912   27.2345 C.ar      1 <1>         0.0008
     17 C14        31.1176   -1.3548   27.2463 C.2       1 <1>         0.0447
     18 C15        32.1380   -2.3161   26.7082 C.2       1 <1>         0.1948
     19 O3         32.9502   -2.7929   27.5392 O.2       1 <1>        -0.2866
     20 C16        32.3166   -2.6460   25.2616 C.ar      1 <1>         0.0225
     21 C17        31.4776   -2.1281   24.2602 C.ar      1 <1>        -0.0475
     22 C18        31.6717   -2.4922   22.9165 C.ar      1 <1>        -0.0193
     23 C19        32.7280   -3.3407   22.5376 C.ar      1 <1>         0.1206
     24 C20        33.6076   -3.7959   23.5205 C.ar      1 <1>        -0.0193
     25 C21        33.3933   -3.4747   24.8693 C.ar      1 <1>        -0.0475
     26 O4         32.9051   -3.8195   21.2051 O.3       1 <1>        -0.4907
     27 C22        32.8421   -2.7954   20.1786 C.3       1 <1>         0.1022
     28 C23        33.0436   -3.3978   18.7841 C.3       1 <1>         0.0331
     29 N1         34.3441   -4.1101   18.5459 N.3       1 <1>        -0.2991
     30 C24        34.3206   -4.7573   17.1919 C.3       1 <1>        -0.0010
     31 C25        35.5833   -5.5881   16.9478 C.3       1 <1>        -0.0402
     32 C26        36.8460   -4.7443   17.1489 C.3       1 <1>        -0.0507
     33 C27        36.8357   -4.0569   18.5181 C.3       1 <1>        -0.0402
     34 C28        35.5520   -3.2439   18.7226 C.3       1 <1>        -0.0010
     35 H1         29.3947   -3.4462   26.3714 H         1 <1>         0.0625
     36 H2         26.8980   -3.3605   26.4790 H         1 <1>         0.0654
     37 H3         25.1244   -1.3458   26.4742 H         1 <1>         0.2921
     38 H4         27.1348    0.5360   28.3293 H         1 <1>         0.0665
     39 H5         33.0567   -0.5221   30.0665 H         1 <1>         0.0625
     40 H6         35.5325   -0.1218   30.1894 H         1 <1>         0.0654
     41 H7         37.1691    1.4127   29.1546 H         1 <1>         0.2921
     42 H8         35.5499    1.0635   26.0973 H         1 <1>         0.0654
     43 H9         33.1183    0.7006   25.9207 H         1 <1>         0.0625
     44 H10        30.6492   -1.4669   24.5090 H         1 <1>         0.0626
     45 H11        30.9672   -2.1551   22.1741 H         1 <1>         0.0654
     46 H12        34.4349   -4.4462   23.2415 H         1 <1>         0.0654
     47 H13        34.0738   -3.8848   25.6064 H         1 <1>         0.0626
     48 H14        31.8267   -2.3428   20.1503 H         1 <1>         0.0709
     49 H15        33.5869   -1.9934   20.3647 H         1 <1>         0.0709
     50 H16        32.2064   -4.1245   18.6440 H         1 <1>         0.0460
     51 H17        32.9128   -2.5840   18.0318 H         1 <1>         0.0460
     52 H18        33.4446   -5.4454   17.1140 H         1 <1>         0.0427
     53 H19        34.2237   -3.9856   16.3906 H         1 <1>         0.0427
     54 H20        35.5908   -6.4490   17.6566 H         1 <1>         0.0278
     55 H21        35.5632   -5.9906   15.9087 H         1 <1>         0.0278
     56 H22        37.7412   -5.4023   17.0735 H         1 <1>         0.0266
     57 H23        36.9068   -3.9732   16.3459 H         1 <1>         0.0266
     58 H24        36.9018   -4.8316   19.3185 H         1 <1>         0.0278
     59 H25        37.7199   -3.3855   18.6081 H         1 <1>         0.0278
     60 H26        35.5236   -2.3830   18.0136 H         1 <1>         0.0427
     61 H27        35.5894   -2.8471   19.7622 H         1 <1>         0.0427
@<TRIPOS>BOND
     1    1    2 ar
     2    1   16 ar
     3    1   35 1
     4    2    3 ar
     5    2   36 1
     6    3    4 1
     7    3    5 ar
     8    4   37 1
     9    5    6 ar
    10    5   38 1
    11    6    7 1
    12    6   16 ar
    13    7    8 1
    14    8    9 1
    15    8   17 2
    16    9   10 ar
    17    9   15 ar
    18   10   11 ar
    19   10   39 1
    20   11   12 ar
    21   11   40 1
    22   12   13 1
    23   12   14 ar
    24   13   41 1
    25   14   15 ar
    26   14   42 1
    27   15   43 1
    28   16   17 1
    29   17   18 1
    30   18   19 2
    31   18   20 1
    32   20   21 ar
    33   20   25 ar
    34   21   22 ar
    35   21   44 1
    36   22   23 ar
    37   22   45 1
    38   23   24 ar
    39   23   26 1
    40   24   25 ar
    41   24   46 1
    42   25   47 1
    43   26   27 1
    44   27   28 1
    45   27   48 1
    46   27   49 1
    47   28   29 1
    48   28   50 1
    49   28   51 1
    50   29   30 1
    51   29   34 1
    52   30   31 1
    53   30   52 1
    54   30   53 1
    55   31   32 1
    56   31   54 1
    57   31   55 1
    58   32   33 1
    59   32   56 1
    60   32   57 1
    61   33   34 1
    62   33   58 1
    63   33   59 1
    64   34   60 1
    65   34   61 1
@<TRIPOS>MOLECULE
15$ERinh5_LY-326315
 66 70 1 0 0
SMALL
USER_CHARGES

mmff94s_NoEstat = 100.05
@<TRIPOS>ATOM
      1 C1         31.5873   -3.0634   21.2248 C.ar      1 <1>        -0.0533
      2 C2         34.5438   -4.2021   23.1618 C.ar      1 <1>        -0.0503
      3 C3         31.9773   -3.3008   19.9120 C.ar      1 <1>        -0.0532
      4 C4         34.0927   -2.9760   17.4405 C.ar      1 <1>        -0.0506
      5 C5         33.4958   -5.3251   17.6408 C.ar      1 <1>        -0.0506
      6 C6         36.0878   -2.2890   19.7710 C.ar      1 <1>        -0.0548
      7 C7         37.6183   -4.0706   19.1822 C.ar      1 <1>        -0.0548
      8 C8         34.1633   -3.8107   24.4434 C.ar      1 <1>        -0.0196
      9 C9         34.5958   -3.2194   16.1574 C.ar      1 <1>        -0.0196
     10 C10        33.9668   -5.5531   16.3370 C.ar      1 <1>        -0.0196
     11 C11        36.9617   -1.3455   19.2270 C.ar      1 <1>        -0.0197
     12 C12        38.4539   -3.1300   18.5705 C.ar      1 <1>        -0.0197
     13 C13        32.0785   -2.9562   23.6034 C.ar      1 <1>        -0.0125
     14 C14        32.4475   -3.3391   22.2959 C.ar      1 <1>        -0.0141
     15 C15        33.7081   -3.9564   22.0502 C.ar      1 <1>        -0.0136
     16 C16        33.5926   -4.0415   18.2126 C.ar      1 <1>        -0.0174
     17 C17        33.2394   -3.8305   19.6382 C.ar      1 <1>        -0.0138
     18 C18        36.3994   -3.6699   19.7477 C.ar      1 <1>        -0.0428
     19 C19        34.1202   -4.1899   20.7054 C.ar      1 <1>        -0.0277
     20 C20        34.5291   -4.4984   15.5990 C.ar      1 <1>         0.1169
     21 C21        38.1483   -1.7563   18.5937 C.ar      1 <1>         0.1204
     22 C22        32.9476   -3.1610   24.6784 C.ar      1 <1>         0.1175
     23 C23        36.3858    3.0663   13.5830 C.3       1 <1>        -0.0564
     24 C24        35.4090    2.6876   14.7030 C.3       1 <1>        -0.0681
     25 C25        37.0671    1.8302   12.9827 C.3       1 <1>        -0.0681
     26 C26        36.1026    1.8231   15.7669 C.3       1 <1>        -0.0905
     27 C27        37.7411    0.9936   14.0801 C.3       1 <1>        -0.0905
     28 C28        35.4959   -4.7376   20.3344 C.3       1 <1>        -0.0013
     29 C29        37.3077   -0.3489   16.1462 C.3       1 <1>        -0.0555
     30 C30        38.3508    0.1990   17.1408 C.3       1 <1>         0.0750
     31 N1         36.7542    0.6212   15.1475 N.4       1 <1>         0.3819
     32 O1         35.1686   -4.7337   14.3610 O.3       1 <1>        -0.5068
     33 O2         32.5547   -2.7619   25.9854 O.3       1 <1>        -0.5067
     34 O3         39.0185   -0.8425   17.9141 O.3       1 <1>        -0.4938
     35 H1         30.6102   -2.6322   21.3895 H         1 <1>         0.0624
     36 H2         35.5157   -4.6716   23.0865 H         1 <1>         0.0625
     37 H3         31.2890   -3.0658   19.1004 H         1 <1>         0.0624
     38 H4         34.1422   -1.9670   17.8473 H         1 <1>         0.0625
     39 H5         33.0825   -6.1518   18.2211 H         1 <1>         0.0625
     40 H6         35.1773   -1.9196   20.2358 H         1 <1>         0.0622
     41 H7         37.8936   -5.1242   19.1642 H         1 <1>         0.0622
     42 H8         34.8445   -3.9989   25.2538 H         1 <1>         0.0654
     43 H9         35.0606   -2.4193   15.5931 H         1 <1>         0.0654
     44 H10        33.9176   -6.5524   15.9106 H         1 <1>         0.0654
     45 H11        36.6940   -0.2939   19.2873 H         1 <1>         0.0654
     46 H12        39.3395   -3.4953   18.0731 H         1 <1>         0.0654
     47 H13        31.1327   -2.4556   23.7923 H         1 <1>         0.0660
     48 H14        35.8298    3.6039   12.7799 H         1 <1>         0.0264
     49 H15        37.1608    3.7586   13.9859 H         1 <1>         0.0264
     50 H16        35.0027    3.6128   15.1734 H         1 <1>         0.0247
     51 H17        34.5543    2.1237   14.2619 H         1 <1>         0.0247
     52 H18        36.3010    1.2103   12.4581 H         1 <1>         0.0247
     53 H19        37.8244    2.1500   12.2310 H         1 <1>         0.0247
     54 H20        36.8601    2.4515   16.2910 H         1 <1>         0.0059
     55 H21        35.3381    1.5047   16.5150 H         1 <1>         0.0059
     56 H22        38.1628    0.0757   13.6066 H         1 <1>         0.0059
     57 H23        38.5847    1.5820   14.5090 H         1 <1>         0.0059
     58 H24        35.3217   -5.5804   19.6299 H         1 <1>         0.0362
     59 H25        36.0827   -5.1615   21.1706 H         1 <1>         0.0362
     60 H26        36.4452   -0.7484   16.7252 H         1 <1>         0.0091
     61 H27        37.7570   -1.2190   15.6130 H         1 <1>         0.0091
     62 H28        39.1455    0.7327   16.5767 H         1 <1>         0.0677
     63 H29        37.8968    0.9508   17.8272 H         1 <1>         0.0677
     64 H30        35.9821    0.0735   14.6553 H         1 <1>        -0.0817
     65 H31        34.4076   -4.7356   13.6535 H         1 <1>         0.2921
     66 H32        33.0849   -3.3367   26.6657 H         1 <1>         0.2921
@<TRIPOS>BOND
     1    1    3 ar
     2    1   14 ar
     3    1   35 1
     4    2    8 ar
     5    2   15 ar
     6    2   36 1
     7    3   17 ar
     8    3   37 1
     9    4    9 ar
    10    4   16 ar
    11    4   38 1
    12    5   10 ar
    13    5   16 ar
    14    5   39 1
    15    6   11 ar
    16    6   18 ar
    17    6   40 1
    18    7   12 ar
    19    7   18 ar
    20    7   41 1
    21    8   22 ar
    22    8   42 1
    23    9   20 ar
    24    9   43 1
    25   10   20 ar
    26   10   44 1
    27   11   21 ar
    28   11   45 1
    29   12   21 ar
    30   12   46 1
    31   13   14 ar
    32   13   22 ar
    33   13   47 1
    34   14   15 ar
    35   15   19 ar
    36   16   17 1
    37   17   19 ar
    38   18   28 1
    39   19   28 1
    40   20   32 1
    41   21   34 1
    42   22   33 1
    43   23   24 1
    44   23   25 1
    45   23   48 1
    46   23   49 1
    47   24   26 1
    48   24   50 1
    49   24   51 1
    50   25   27 1
    51   25   52 1
    52   25   53 1
    53   26   31 1
    54   26   54 1
    55   26   55 1
    56   27   31 1
    57   27   56 1
    58   27   57 1
    59   28   58 1
    60   28   59 1
    61   29   30 1
    62   29   31 1
    63   29   60 1
    64   29   61 1
    65   30   34 1
    66   30   62 1
    67   30   63 1
    68   31   64 1
    69   32   65 1
    70   33   66 1
@<TRIPOS>MOLECULE
16$ERinh5_LY-326315
 66 70 1 0 0
SMALL
USER_CHARGES

mmff94s_NoEstat = 100.05
@<TRIPOS>ATOM
      1 C1         31.0861   -3.0805   20.7568 C.ar      1 <1>        -0.0533
      2 C2         34.1758   -3.9648   22.6374 C.ar      1 <1>        -0.0503
      3 C3         31.3696   -3.5601   19.4771 C.ar      1 <1>        -0.0532
      4 C4         33.6667   -3.4280   17.0711 C.ar      1 <1>        -0.0506
      5 C5         32.7198   -5.6669   17.1959 C.ar      1 <1>        -0.0506
      6 C6         35.6973   -2.3665   19.8541 C.ar      1 <1>        -0.0548
      7 C7         37.3394   -4.1473   19.7811 C.ar      1 <1>        -0.0548
      8 C8         33.8306   -3.5480   23.9265 C.ar      1 <1>        -0.0196
      9 C9         34.1794   -3.7136   15.8013 C.ar      1 <1>        -0.0196
     10 C10        33.2298   -5.9462   15.9163 C.ar      1 <1>        -0.0196
     11 C11        36.6898   -1.4328   19.5367 C.ar      1 <1>        -0.0197
     12 C12        38.3358   -3.1984   19.5604 C.ar      1 <1>        -0.0197
     13 C13        31.7420   -2.6753   23.0853 C.ar      1 <1>        -0.0125
     14 C14        32.0299   -3.1792   21.7969 C.ar      1 <1>        -0.0141
     15 C15        33.2788   -3.8051   21.5478 C.ar      1 <1>        -0.0136
     16 C16        32.9616   -4.4138   17.7875 C.ar      1 <1>        -0.0174
     17 C17        32.6100   -4.1469   19.1998 C.ar      1 <1>        -0.0138
     18 C18        36.0023   -3.7512   19.8897 C.ar      1 <1>        -0.0428
     19 C19        33.5752   -4.2798   20.2331 C.ar      1 <1>        -0.0277
     20 C20        33.9553   -4.9642   15.2175 C.ar      1 <1>         0.1169
     21 C21        38.0310   -1.8435   19.3749 C.ar      1 <1>         0.1204
     22 C22        32.6212   -2.8948   24.1627 C.ar      1 <1>         0.1175
     23 C23        36.3383    2.1265   13.7078 C.3       1 <1>        -0.0564
     24 C24        37.1868    0.9344   13.2629 C.3       1 <1>        -0.0681
     25 C25        36.9560    2.8112   14.9280 C.3       1 <1>        -0.0681
     26 C26        37.3889   -0.0454   14.4234 C.3       1 <1>        -0.0905
     27 C27        37.1648    1.8108   16.0712 C.3       1 <1>        -0.0905
     28 C28        34.9520   -4.8413   19.9359 C.3       1 <1>        -0.0013
     29 C29        38.0542   -0.4192   16.7446 C.3       1 <1>        -0.0555
     30 C30        38.7165    0.0848   18.0361 C.3       1 <1>         0.0750
     31 N1         37.9598    0.6052   15.6521 N.4       1 <1>         0.3819
     32 O1         34.5922   -5.2660   13.9969 O.3       1 <1>        -0.5068
     33 O2         32.3388   -2.4661   25.4898 O.3       1 <1>        -0.5067
     34 O3         39.0951   -0.9856   18.9441 O.3       1 <1>        -0.4938
     35 H1         30.1176   -2.6211   20.9157 H         1 <1>         0.0624
     36 H2         35.1470   -4.4387   22.5277 H         1 <1>         0.0625
     37 H3         30.6300   -3.4370   18.6867 H         1 <1>         0.0624
     38 H4         33.8526   -2.4505   17.5103 H         1 <1>         0.0625
     39 H5         32.1786   -6.4367   17.7439 H         1 <1>         0.0625
     40 H6         34.6779   -1.9978   19.9521 H         1 <1>         0.0622
     41 H7         37.6122   -5.1970   19.8788 H         1 <1>         0.0622
     42 H8         34.5160   -3.7278   24.7524 H         1 <1>         0.0654
     43 H9         34.7689   -2.9744   15.2654 H         1 <1>         0.0654
     44 H10        33.0826   -6.9319   15.4795 H         1 <1>         0.0654
     45 H11        36.4001   -0.3906   19.4233 H         1 <1>         0.0654
     46 H12        39.3513   -3.5403   19.5192 H         1 <1>         0.0654
     47 H13        30.8219   -2.1291   23.2680 H         1 <1>         0.0660
     48 H14        36.2610    2.8591   12.8713 H         1 <1>         0.0264
     49 H15        35.3063    1.7816   13.9548 H         1 <1>         0.0264
     50 H16        36.6756    0.4146   12.4191 H         1 <1>         0.0247
     51 H17        38.1777    1.2963   12.9021 H         1 <1>         0.0247
     52 H18        37.9352    3.2631   14.6444 H         1 <1>         0.0247
     53 H19        36.2818    3.6301   15.2713 H         1 <1>         0.0247
     54 H20        36.4092   -0.5097   14.6727 H         1 <1>         0.0059
     55 H21        38.0577   -0.8594   14.0638 H         1 <1>         0.0059
     56 H22        37.6966    2.3607   16.8818 H         1 <1>         0.0059
     57 H23        36.1683    1.4959   16.4631 H         1 <1>         0.0059
     58 H24        35.0254   -5.3357   18.9410 H         1 <1>         0.0362
     59 H25        35.1594   -5.6313   20.6920 H         1 <1>         0.0362
     60 H26        37.0346   -0.8029   16.9775 H         1 <1>         0.0091
     61 H27        38.6552   -1.2850   16.3871 H         1 <1>         0.0091
     62 H28        39.6501    0.6115   17.7439 H         1 <1>         0.0677
     63 H29        38.0847    0.8304   18.5716 H         1 <1>         0.0677
     64 H30        38.9593    0.9210   15.4161 H         1 <1>        -0.0817
     65 H31        33.9233   -4.9755   13.2644 H         1 <1>         0.2921
     66 H32        31.4572   -1.9269   25.4801 H         1 <1>         0.2921
@<TRIPOS>BOND
     1    1    3 ar
     2    1   14 ar
     3    1   35 1
     4    2    8 ar
     5    2   15 ar
     6    2   36 1
     7    3   17 ar
     8    3   37 1
     9    4    9 ar
    10    4   16 ar
    11    4   38 1
    12    5   10 ar
    13    5   16 ar
    14    5   39 1
    15    6   11 ar
    16    6   18 ar
    17    6   40 1
    18    7   12 ar
    19    7   18 ar
    20    7   41 1
    21    8   22 ar
    22    8   42 1
    23    9   20 ar
    24    9   43 1
    25   10   20 ar
    26   10   44 1
    27   11   21 ar
    28   11   45 1
    29   12   21 ar
    30   12   46 1
    31   13   14 ar
    32   13   22 ar
    33   13   47 1
    34   14   15 ar
    35   15   19 ar
    36   16   17 1
    37   17   19 ar
    38   18   28 1
    39   19   28 1
    40   20   32 1
    41   21   34 1
    42   22   33 1
    43   23   24 1
    44   23   25 1
    45   23   48 1
    46   23   49 1
    47   24   26 1
    48   24   50 1
    49   24   51 1
    50   25   27 1
    51   25   52 1
    52   25   53 1
    53   26   31 1
    54   26   54 1
    55   26   55 1
    56   27   31 1
    57   27   56 1
    58   27   57 1
    59   28   58 1
    60   28   59 1
    61   29   30 1
    62   29   31 1
    63   29   60 1
    64   29   61 1
    65   30   34 1
    66   30   62 1
    67   30   63 1
    68   31   64 1
    69   32   65 1
    70   33   66 1
@<TRIPOS>MOLECULE
17$ERinh5_LY-326315
 66 70 1 0 0
SMALL
USER_CHARGES

mmff94s_NoEstat = 100.05
@<TRIPOS>ATOM
      1 C1         29.2681    1.2274   28.1774 C.ar      1 <1>        -0.0533
      2 C2         28.9677   -2.2094   26.7691 C.ar      1 <1>        -0.0503
      3 C3         30.6435    1.3550   28.3354 C.ar      1 <1>        -0.0532
      4 C4         33.6043    0.2205   29.2287 C.ar      1 <1>        -0.0506
      5 C5         33.6709    0.8189   26.8735 C.ar      1 <1>        -0.0506
      6 C6         31.3185   -1.7258   24.3775 C.ar      1 <1>        -0.0548
      7 C7         33.0309   -3.2964   25.0847 C.ar      1 <1>        -0.0548
      8 C8         27.5682   -2.3363   26.7419 C.ar      1 <1>        -0.0196
      9 C9         35.0029    0.3052   29.2877 C.ar      1 <1>        -0.0196
     10 C10        35.0601    0.7977   26.9283 C.ar      1 <1>        -0.0196
     11 C11        31.4642   -2.2034   23.0665 C.ar      1 <1>        -0.0197
     12 C12        33.1880   -3.7285   23.7677 C.ar      1 <1>        -0.0197
     13 C13        27.3340   -0.0635   27.5413 C.ar      1 <1>        -0.0125
     14 C14        28.7271    0.0558   27.6329 C.ar      1 <1>        -0.0141
     15 C15        29.5780   -1.0116   27.2154 C.ar      1 <1>        -0.0136
     16 C16        32.9390    0.5373   28.0341 C.ar      1 <1>        -0.0174
     17 C17        31.4954    0.3340   27.9019 C.ar      1 <1>        -0.0138
     18 C18        32.0889   -2.2984   25.4076 C.ar      1 <1>        -0.0428
     19 C19        30.9945   -0.8547   27.3099 C.ar      1 <1>        -0.0277
     20 C20        35.7255    0.6280   28.1420 C.ar      1 <1>         0.1169
     21 C21        32.3993   -3.1871   22.7514 C.ar      1 <1>         0.1204
     22 C22        26.7542   -1.2600   27.1273 C.ar      1 <1>         0.1175
     23 C23        38.1522   -3.9651   18.3055 C.3       1 <1>        -0.0564
     24 C24        38.3312   -3.3576   19.6974 C.3       1 <1>        -0.0681
     25 C25        36.8688   -3.4341   17.6651 C.3       1 <1>        -0.0681
     26 C26        37.1204   -3.6800   20.5673 C.3       1 <1>        -0.0905
     27 C27        35.6571   -3.7704   18.5456 C.3       1 <1>        -0.0905
     28 C28        31.9989   -1.9267   26.8602 C.3       1 <1>        -0.0013
     29 C29        34.7187   -3.7432   20.8615 C.3       1 <1>        -0.0555
     30 C30        33.3080   -3.2503   20.5352 C.3       1 <1>         0.0750
     31 N1         35.8075   -3.2710   19.9555 N.4       1 <1>         0.3819
     32 O1         37.1090    0.8654   28.2257 O.3       1 <1>        -0.5068
     33 O2         25.3454   -1.3649   27.1286 O.3       1 <1>        -0.5067
     34 O3         32.3577   -3.8045   21.4758 O.3       1 <1>        -0.4938
     35 H1         28.6227    2.0357   28.5114 H         1 <1>         0.0624
     36 H2         29.5663   -3.0625   26.4582 H         1 <1>         0.0625
     37 H3         31.0483    2.2568   28.7882 H         1 <1>         0.0624
     38 H4         33.0354   -0.1175   30.0898 H         1 <1>         0.0625
     39 H5         33.1681    0.9880   25.9198 H         1 <1>         0.0625
     40 H6         30.5773   -0.9568   24.5838 H         1 <1>         0.0622
     41 H7         33.6324   -3.7634   25.8611 H         1 <1>         0.0622
     42 H8         27.1108   -3.2696   26.4133 H         1 <1>         0.0654
     43 H9         35.5525    0.0963   30.1992 H         1 <1>         0.0654
     44 H10        35.6210    0.9174   26.0246 H         1 <1>         0.0654
     45 H11        30.8080   -1.8820   22.2795 H         1 <1>         0.0654
     46 H12        33.8842   -4.5303   23.5413 H         1 <1>         0.0654
     47 H13        26.6841    0.7650   27.8133 H         1 <1>         0.0660
     48 H14        39.0217   -3.7141   17.6645 H         1 <1>         0.0264
     49 H15        38.1005   -5.0767   18.3842 H         1 <1>         0.0264
     50 H16        39.2249   -3.7906   20.1970 H         1 <1>         0.0247
     51 H17        38.4613   -2.2520   19.6237 H         1 <1>         0.0247
     52 H18        36.9393   -2.3274   17.5406 H         1 <1>         0.0247
     53 H19        36.7342   -3.8900   16.6574 H         1 <1>         0.0247
     54 H20        37.1275   -4.7780   20.7748 H         1 <1>         0.0059
     55 H21        37.2583   -3.1512   21.5380 H         1 <1>         0.0059
     56 H22        34.7660   -3.2993   18.0702 H         1 <1>         0.0059
     57 H23        35.5052   -4.8757   18.5424 H         1 <1>         0.0059
     58 H24        31.7935   -2.8300   27.4253 H         1 <1>         0.0362
     59 H25        33.0441   -1.6682   27.1139 H         1 <1>         0.0362
     60 H26        34.6996   -4.8589   20.9008 H         1 <1>         0.0091
     61 H27        34.9581   -3.3684   21.8798 H         1 <1>         0.0091
     62 H28        33.2622   -2.1393   20.5059 H         1 <1>         0.0677
     63 H29        33.0075   -3.6286   19.5316 H         1 <1>         0.0677
     64 H30        35.7814   -2.1982   19.9349 H         1 <1>        -0.0817
     65 H31        37.5288   -0.0045   27.8770 H         1 <1>         0.2921
     66 H32        25.0947   -1.5556   26.1425 H         1 <1>         0.2921
@<TRIPOS>BOND
     1    1    3 ar
     2    1   14 ar
     3    1   35 1
     4    2    8 ar
     5    2   15 ar
     6    2   36 1
     7    3   17 ar
     8    3   37 1
     9    4    9 ar
    10    4   16 ar
    11    4   38 1
    12    5   10 ar
    13    5   16 ar
    14    5   39 1
    15    6   11 ar
    16    6   18 ar
    17    6   40 1
    18    7   12 ar
    19    7   18 ar
    20    7   41 1
    21    8   22 ar
    22    8   42 1
    23    9   20 ar
    24    9   43 1
    25   10   20 ar
    26   10   44 1
    27   11   21 ar
    28   11   45 1
    29   12   21 ar
    30   12   46 1
    31   13   14 ar
    32   13   22 ar
    33   13   47 1
    34   14   15 ar
    35   15   19 ar
    36   16   17 1
    37   17   19 ar
    38   18   28 1
    39   19   28 1
    40   20   32 1
    41   21   34 1
    42   22   33 1
    43   23   24 1
    44   23   25 1
    45   23   48 1
    46   23   49 1
    47   24   26 1
    48   24   50 1
    49   24   51 1
    50   25   27 1
    51   25   52 1
    52   25   53 1
    53   26   31 1
    54   26   54 1
    55   26   55 1
    56   27   31 1
    57   27   56 1
    58   27   57 1
    59   28   58 1
    60   28   59 1
    61   29   30 1
    62   29   31 1
    63   29   60 1
    64   29   61 1
    65   30   34 1
    66   30   62 1
    67   30   63 1
    68   31   64 1
    69   32   65 1
    70   33   66 1
@<TRIPOS>MOLECULE
18$ERinh5_LY-326315
 66 70 1 0 0
SMALL
USER_CHARGES

mmff94s_NoEstat = 100.05
@<TRIPOS>ATOM
      1 C1         29.0146    1.5536   28.3186 C.ar      1 <1>        -0.0533
      2 C2         28.8115   -1.9522   27.0699 C.ar      1 <1>        -0.0503
      3 C3         30.3880    1.7428   28.4557 C.ar      1 <1>        -0.0532
      4 C4         33.4417    0.5049   29.2238 C.ar      1 <1>        -0.0506
      5 C5         33.3710    1.1508   26.8879 C.ar      1 <1>        -0.0506
      6 C6         31.2417   -1.6006   24.8198 C.ar      1 <1>        -0.0548
      7 C7         32.9254   -3.1139   25.6982 C.ar      1 <1>        -0.0548
      8 C8         27.4167   -2.1056   26.9877 C.ar      1 <1>        -0.0196
      9 C9         34.8198    0.2638   29.1193 C.ar      1 <1>        -0.0196
     10 C10        34.7281    0.8437   26.7764 C.ar      1 <1>        -0.0196
     11 C11        31.4230   -2.1687   23.5541 C.ar      1 <1>        -0.0197
     12 C12        33.1396   -3.6209   24.4178 C.ar      1 <1>        -0.0197
     13 C13        27.1186    0.1960   27.6724 C.ar      1 <1>        -0.0125
     14 C14        28.5066    0.3475   27.8148 C.ar      1 <1>        -0.0141
     15 C15        29.3849   -0.7226   27.4845 C.ar      1 <1>        -0.0136
     16 C16        32.7178    0.9530   28.1112 C.ar      1 <1>        -0.0174
     17 C17        31.2702    0.7295   28.0762 C.ar      1 <1>        -0.0138
     18 C18        31.9630   -2.1106   25.9160 C.ar      1 <1>        -0.0428
     19 C19        30.7924   -0.5258   27.6154 C.ar      1 <1>        -0.0277
     20 C20        35.4644    0.4107   27.8845 C.ar      1 <1>         0.1169
     21 C21        32.3487   -3.1928   23.3502 C.ar      1 <1>         0.1204
     22 C22        26.5705   -1.0280   27.2853 C.ar      1 <1>         0.1175
     23 C23        37.9722   -2.6777   19.0185 C.3       1 <1>        -0.0564
     24 C24        36.5762   -2.4977   18.4220 C.3       1 <1>        -0.0681
     25 C25        38.0668   -3.9369   19.8775 C.3       1 <1>        -0.0681
     26 C26        35.5002   -2.5332   19.5125 C.3       1 <1>        -0.0905
     27 C27        36.9772   -3.9277   20.9464 C.3       1 <1>        -0.0905
     28 C28        31.8156   -1.6264   27.3272 C.3       1 <1>        -0.0013
     29 C29        34.6189   -3.7674   21.5037 C.3       1 <1>        -0.0555
     30 C30        33.1532   -3.5581   21.1170 C.3       1 <1>         0.0750
     31 N1         35.5958   -3.7638   20.3732 N.4       1 <1>         0.3819
     32 O1         36.8470    0.1428   27.7527 O.3       1 <1>        -0.5068
     33 O2         25.1652   -1.1736   27.2710 O.3       1 <1>        -0.5067
     34 O3         32.2715   -3.9857   22.1775 O.3       1 <1>        -0.4938
     35 H1         28.3389    2.3460   28.6220 H         1 <1>         0.0624
     36 H2         29.4300   -2.8086   26.8142 H         1 <1>         0.0625
     37 H3         30.7684    2.6816   28.8461 H         1 <1>         0.0624
     38 H4         32.9108    0.2326   30.1278 H         1 <1>         0.0625
     39 H5         32.8149    1.4270   25.9960 H         1 <1>         0.0625
     40 H6         30.5108   -0.8044   24.9397 H         1 <1>         0.0622
     41 H7         33.5045   -3.5124   26.5270 H         1 <1>         0.0622
     42 H8         26.9877   -3.0604   26.6860 H         1 <1>         0.0654
     43 H9         35.3855   -0.1111   29.9661 H         1 <1>         0.0654
     44 H10        35.1958    0.9242   25.8122 H         1 <1>         0.0654
     45 H11        30.7985   -1.8747   22.7316 H         1 <1>         0.0654
     46 H12        33.8742   -4.4014   24.2628 H         1 <1>         0.0654
     47 H13        26.4552    1.0296   27.8769 H         1 <1>         0.0660
     48 H14        38.6917   -2.7768   18.1868 H         1 <1>         0.0264
     49 H15        38.2467   -1.7816   19.6231 H         1 <1>         0.0264
     50 H16        36.5249   -1.5240   17.8815 H         1 <1>         0.0247
     51 H17        36.3796   -3.3146   17.6888 H         1 <1>         0.0247
     52 H18        37.9527   -4.8423   19.2370 H         1 <1>         0.0247
     53 H19        39.0615   -3.9795   20.3777 H         1 <1>         0.0247
     54 H20        35.5845   -1.6142   20.1329 H         1 <1>         0.0059
     55 H21        34.5127   -2.5007   18.9966 H         1 <1>         0.0059
     56 H22        37.0475   -4.8865   21.5133 H         1 <1>         0.0059
     57 H23        37.2001   -3.0952   21.6540 H         1 <1>         0.0059
     58 H24        31.5782   -2.4333   28.0127 H         1 <1>         0.0362
     59 H25        32.8555   -1.3571   27.5766 H         1 <1>         0.0362
     60 H26        34.6885   -4.7530   22.0212 H         1 <1>         0.0091
     61 H27        34.8859   -2.9791   22.2411 H         1 <1>         0.0091
     62 H28        32.9514   -2.4984   20.8457 H         1 <1>         0.0677
     63 H29        32.9165   -4.1889   20.2280 H         1 <1>         0.0677
     64 H30        35.3925   -4.6169   19.7566 H         1 <1>        -0.0817
     65 H31        37.3119    0.5316   28.5943 H         1 <1>         0.2921
     66 H32        24.9179   -1.3435   26.2761 H         1 <1>         0.2921
@<TRIPOS>BOND
     1    1    3 ar
     2    1   14 ar
     3    1   35 1
     4    2    8 ar
     5    2   15 ar
     6    2   36 1
     7    3   17 ar
     8    3   37 1
     9    4    9 ar
    10    4   16 ar
    11    4   38 1
    12    5   10 ar
    13    5   16 ar
    14    5   39 1
    15    6   11 ar
    16    6   18 ar
    17    6   40 1
    18    7   12 ar
    19    7   18 ar
    20    7   41 1
    21    8   22 ar
    22    8   42 1
    23    9   20 ar
    24    9   43 1
    25   10   20 ar
    26   10   44 1
    27   11   21 ar
    28   11   45 1
    29   12   21 ar
    30   12   46 1
    31   13   14 ar
    32   13   22 ar
    33   13   47 1
    34   14   15 ar
    35   15   19 ar
    36   16   17 1
    37   17   19 ar
    38   18   28 1
    39   19   28 1
    40   20   32 1
    41   21   34 1
    42   22   33 1
    43   23   24 1
    44   23   25 1
    45   23   48 1
    46   23   49 1
    47   24   26 1
    48   24   50 1
    49   24   51 1
    50   25   27 1
    51   25   52 1
    52   25   53 1
    53   26   31 1
    54   26   54 1
    55   26   55 1
    56   27   31 1
    57   27   56 1
    58   27   57 1
    59   28   58 1
    60   28   59 1
    61   29   30 1
    62   29   31 1
    63   29   60 1
    64   29   61 1
    65   30   34 1
    66   30   62 1
    67   30   63 1
    68   31   64 1
    69   32   65 1
    70   33   66 1
