@<TRIPOS>MOLECULE
(7660886)_1_2
   32    34     0     0     0
SMALL
NO_CHARGES
 
mmff94s_NoEstat = 41.14
@<TRIPOS>ATOM
      1 C1         -0.9102   -1.8267    0.8487 C.2       1 <0>         0.0000
      2 C2         -0.1104   -1.0751    0.0150 C.2       1 <0>         0.0000
      3 S1          0.7663   -2.0499   -1.0868 S.3       1 <0>         0.0000
      4 C3          0.0773   -3.4726   -0.4547 C.2       1 <0>         0.0000
      5 C4         -0.8020   -3.2247    0.5823 C.2       1 <0>         0.0000
      6 C5         -1.5396   -4.3244    1.2814 C.3       1 <0>         0.0000
      7 C6         -0.9079   -5.6983    1.0072 C.3       1 <0>         0.0000
      8 C7         -0.5718   -5.8802   -0.4801 C.3       1 <0>         0.0000
      9 C8          0.4389   -4.8307   -0.9694 C.3       1 <0>         0.0000
     10 C9         -1.7450   -1.2198    1.8536 C.2       1 <0>         0.0000
     11 N1         -1.2642   -0.0109    2.3878 N.am      1 <0>         0.0000
     12 C10        -1.8665    0.8336    3.3539 C.ar      1 <0>         0.0000
     13 C11        -3.0888    0.5026    3.8972 C.ar      1 <0>         0.0000
     14 C12        -3.6548    1.3506    4.8426 C.ar      1 <0>         0.0000
     15 C13        -2.9536    2.4938    5.1910 C.ar      1 <0>         0.0000
     16 N2         -1.7540    2.8343    4.6688 N.ar      1 <0>         0.0000
     17 C14        -1.2349    1.9856    3.7533 C.ar      1 <0>         0.0000
     18 O1         -2.8303   -1.7283    2.1871 O.2       1 <0>         0.0000
     19 H1         -0.0011    0.0000    0.0007 H         1 <0>         0.0000
     20 H2         -1.5628   -4.1401    2.3614 H         1 <0>         0.0000
     21 H3         -2.5782   -4.3264    0.9278 H         1 <0>         0.0000
     22 H4          0.0112   -5.8046    1.5974 H         1 <0>         0.0000
     23 H5         -1.5933   -6.4877    1.3355 H         1 <0>         0.0000
     24 H6         -0.1675   -6.8840   -0.6533 H         1 <0>         0.0000
     25 H7         -1.4954   -5.8015   -1.0681 H         1 <0>         0.0000
     26 H8          0.4732   -4.8413   -2.0646 H         1 <0>         0.0000
     27 H9          1.4389   -5.0940   -0.6034 H         1 <0>         0.0000
     28 H10        -0.3629    0.2992    2.0330 H         1 <0>         0.0000
     29 H11        -3.6162   -0.4012    3.6040 H         1 <0>         0.0000
     30 H12        -4.6149    1.1244    5.2921 H         1 <0>         0.0000
     31 H13        -3.3520    3.1880    5.9235 H         1 <0>         0.0000
     32 H14        -0.2717    2.2861    3.3521 H         1 <0>         0.0000
@<TRIPOS>BOND
     1    1    5 1
     2    1    2 2
     3    2    3 1
     4    3    4 1
     5    4    9 1
     6    4    5 2
     7    5    6 1
     8    6    7 1
     9    7    8 1
    10    8    9 1
    11    1   10 1
    12   10   11 am
    13   11   12 1
    14   12   17 ar
    15   12   13 ar
    16   13   14 ar
    17   14   15 ar
    18   15   16 ar
    19   16   17 ar
    20   10   18 2
    21    2   19 1
    22    6   20 1
    23    6   21 1
    24    7   22 1
    25    7   23 1
    26    8   24 1
    27    8   25 1
    28    9   26 1
    29    9   27 1
    30   11   28 1
    31   13   29 1
    32   14   30 1
    33   15   31 1
    34   17   32 1
@<TRIPOS>MOLECULE
(7660886)_1_3
   32    34     0     0     0
SMALL
NO_CHARGES
                                                                                                        
mmff94s_NoEstat = 43.97
@<TRIPOS>ATOM
      1 C1         -0.9102   -1.8267    0.8487 C.2       1 <0>         0.0000
      2 C2         -0.1104   -1.0751    0.0150 C.2       1 <0>         0.0000
      3 S1          0.7663   -2.0499   -1.0868 S.3       1 <0>         0.0000
      4 C3          0.0773   -3.4726   -0.4547 C.2       1 <0>         0.0000
      5 C4         -0.8020   -3.2247    0.5823 C.2       1 <0>         0.0000
      6 C5         -1.5396   -4.3244    1.2814 C.3       1 <0>         0.0000
      7 C6         -0.9079   -5.6983    1.0072 C.3       1 <0>         0.0000
      8 C7         -0.5718   -5.8802   -0.4801 C.3       1 <0>         0.0000
      9 C8          0.4389   -4.8307   -0.9694 C.3       1 <0>         0.0000
     10 C9         -1.7450   -1.2198    1.8536 C.2       1 <0>         0.0000
     11 N1         -3.0453   -0.8844    1.4357 N.am      1 <0>         0.0000
     12 C10        -4.1005   -0.3141    2.1913 C.ar      1 <0>         0.0000
     13 C11        -5.3166   -0.0560    1.5971 C.ar      1 <0>         0.0000
     14 C12        -6.3327    0.5039    2.3635 C.ar      1 <0>         0.0000
     15 C13        -6.0658    0.7752    3.6958 C.ar      1 <0>         0.0000
     16 N2         -4.8795    0.5286    4.2954 N.ar      1 <0>         0.0000
     17 C14        -3.9161   -0.0164    3.5190 C.ar      1 <0>         0.0000
     18 O1         -1.3362   -1.0447    3.0155 O.2       1 <0>         0.0000
     19 H1         -0.0011    0.0000    0.0007 H         1 <0>         0.0000
     20 H2         -1.5628   -4.1401    2.3614 H         1 <0>         0.0000
     21 H3         -2.5782   -4.3264    0.9278 H         1 <0>         0.0000
     22 H4          0.0112   -5.8046    1.5974 H         1 <0>         0.0000
     23 H5         -1.5933   -6.4877    1.3355 H         1 <0>         0.0000
     24 H6         -0.1675   -6.8840   -0.6533 H         1 <0>         0.0000
     25 H7         -1.4954   -5.8015   -1.0681 H         1 <0>         0.0000
     26 H8          0.4732   -4.8413   -2.0646 H         1 <0>         0.0000
     27 H9          1.4389   -5.0940   -0.6034 H         1 <0>         0.0000
     28 H10        -3.2572   -1.0769    0.4598 H         1 <0>         0.0000
     29 H11        -5.4969   -0.2790    0.5489 H         1 <0>         0.0000
     30 H12        -7.3027    0.7218    1.9315 H         1 <0>         0.0000
     31 H13        -6.8248    1.2123    4.3364 H         1 <0>         0.0000
     32 H14        -2.9752   -0.2022    4.0282 H         1 <0>         0.0000
@<TRIPOS>BOND
     1    1    5 1
     2    1    2 2
     3    2    3 1
     4    3    4 1
     5    4    9 1
     6    4    5 2
     7    5    6 1
     8    6    7 1
     9    7    8 1
    10    8    9 1
    11    1   10 1
    12   10   11 am
    13   11   12 1
    14   12   17 ar
    15   12   13 ar
    16   13   14 ar
    17   14   15 ar
    18   15   16 ar
    19   16   17 ar
    20   10   18 2
    21    2   19 1
    22    6   20 1
    23    6   21 1
    24    7   22 1
    25    7   23 1
    26    8   24 1
    27    8   25 1
    28    9   26 1
    29    9   27 1
    30   11   28 1
    31   13   29 1
    32   14   30 1
    33   15   31 1
    34   17   32 1
@<TRIPOS>MOLECULE
(7660886)_1_4
   32    34     0     0     0
SMALL
NO_CHARGES
 
mmff94s_NoEstat = 44.09
@<TRIPOS>ATOM
      1 C1         -0.9102   -1.8267    0.8487 C.2       1 <0>         0.0000
      2 C2         -0.1104   -1.0751    0.0150 C.2       1 <0>         0.0000
      3 S1          0.7663   -2.0499   -1.0868 S.3       1 <0>         0.0000
      4 C3          0.0773   -3.4726   -0.4547 C.2       1 <0>         0.0000
      5 C4         -0.8020   -3.2247    0.5823 C.2       1 <0>         0.0000
      6 C5         -1.5396   -4.3244    1.2814 C.3       1 <0>         0.0000
      7 C6         -0.9079   -5.6983    1.0072 C.3       1 <0>         0.0000
      8 C7         -0.5718   -5.8802   -0.4801 C.3       1 <0>         0.0000
      9 C8          0.4389   -4.8307   -0.9694 C.3       1 <0>         0.0000
     10 C9         -1.7450   -1.2198    1.8536 C.2       1 <0>         0.0000
     11 N1         -3.0453   -0.8844    1.4357 N.am      1 <0>         0.0000
     12 C10        -4.1005   -0.3141    2.1913 C.ar      1 <0>         0.0000
     13 C11        -3.9150   -0.0153    3.5236 C.ar      1 <0>         0.0000
     14 C12        -4.9684    0.5432    4.2391 C.ar      1 <0>         0.0000
     15 C13        -6.1591    0.7712    3.5684 C.ar      1 <0>         0.0000
     16 N2         -6.3590    0.4846    2.2624 N.ar      1 <0>         0.0000
     17 C14        -5.3124   -0.0566    1.5995 C.ar      1 <0>         0.0000
     18 O1         -1.3362   -1.0447    3.0155 O.2       1 <0>         0.0000
     19 H1         -0.0011    0.0000    0.0007 H         1 <0>         0.0000
     20 H2         -1.5628   -4.1401    2.3614 H         1 <0>         0.0000
     21 H3         -2.5782   -4.3264    0.9278 H         1 <0>         0.0000
     22 H4          0.0112   -5.8046    1.5974 H         1 <0>         0.0000
     23 H5         -1.5933   -6.4877    1.3355 H         1 <0>         0.0000
     24 H6         -0.1675   -6.8840   -0.6533 H         1 <0>         0.0000
     25 H7         -1.4954   -5.8015   -1.0681 H         1 <0>         0.0000
     26 H8          0.4732   -4.8413   -2.0646 H         1 <0>         0.0000
     27 H9          1.4389   -5.0940   -0.6034 H         1 <0>         0.0000
     28 H10        -3.2572   -1.0769    0.4598 H         1 <0>         0.0000
     29 H11        -2.9692   -0.2060    4.0236 H         1 <0>         0.0000
     30 H12        -4.8610    0.7915    5.2888 H         1 <0>         0.0000
     31 H13        -7.0113    1.2048    4.0815 H         1 <0>         0.0000
     32 H14        -5.5035   -0.2760    0.5533 H         1 <0>         0.0000
@<TRIPOS>BOND
     1    1    5 1
     2    1    2 2
     3    2    3 1
     4    3    4 1
     5    4    9 1
     6    4    5 2
     7    5    6 1
     8    6    7 1
     9    7    8 1
    10    8    9 1
    11    1   10 1
    12   10   11 am
    13   11   12 1
    14   12   17 ar
    15   12   13 ar
    16   13   14 ar
    17   14   15 ar
    18   15   16 ar
    19   16   17 ar
    20   10   18 2
    21    2   19 1
    22    6   20 1
    23    6   21 1
    24    7   22 1
    25    7   23 1
    26    8   24 1
    27    8   25 1
    28    9   26 1
    29    9   27 1
    30   11   28 1
    31   13   29 1
    32   14   30 1
    33   15   31 1
    34   17   32 1
@<TRIPOS>MOLECULE
(7660886)_1_5
   32    34     0     0     0
SMALL
NO_CHARGES
 
mmff94s_NoEstat = 44.98
@<TRIPOS>ATOM
      1 C1          0.8294   -1.2051   -1.6569 C.2       1 <0>         0.0000
      2 C2          0.6264   -0.8070   -0.3531 C.2       1 <0>         0.0000
      3 S1          1.5122   -1.7635    0.7574 S.3       1 <0>         0.0000
      4 C3          2.1623   -2.7104   -0.4991 C.2       1 <0>         0.0000
      5 C4          1.7258   -2.3119   -1.7483 C.2       1 <0>         0.0000
      6 C5          2.1536   -3.0106   -3.0017 C.3       1 <0>         0.0000
      7 C6          3.3943   -3.8874   -2.7702 C.3       1 <0>         0.0000
      8 C7          3.2692   -4.7165   -1.4836 C.3       1 <0>         0.0000
      9 C8          3.1293   -3.8231   -0.2407 C.3       1 <0>         0.0000
     10 C9          0.1896   -0.5418   -2.7639 C.2       1 <0>         0.0000
     11 N1         -0.0753   -1.3528   -3.8820 N.am      1 <0>         0.0000
     12 C10        -0.7183   -1.0063   -5.0968 C.ar      1 <0>         0.0000
     13 C11        -0.8867   -1.9516   -6.0852 C.ar      1 <0>         0.0000
     14 C12        -1.5209   -1.5822   -7.2661 C.ar      1 <0>         0.0000
     15 C13        -1.9535   -0.2715   -7.3875 C.ar      1 <0>         0.0000
     16 N2         -1.7972    0.6688   -6.4288 N.ar      1 <0>         0.0000
     17 C14        -1.1768    0.2728   -5.2948 C.ar      1 <0>         0.0000
     18 O1         -0.1301    0.6589   -2.7020 O.2       1 <0>         0.0000
     19 H1          0.0003    0.0006   -0.0013 H         1 <0>         0.0000
     20 H2          1.3250   -3.6401   -3.3494 H         1 <0>         0.0000
     21 H3          2.3636   -2.2806   -3.7917 H         1 <0>         0.0000
     22 H4          3.5389   -4.5502   -3.6308 H         1 <0>         0.0000
     23 H5          4.2863   -3.2515   -2.7014 H         1 <0>         0.0000
     24 H6          2.3926   -5.3722   -1.5647 H         1 <0>         0.0000
     25 H7          4.1445   -5.3660   -1.3695 H         1 <0>         0.0000
     26 H8          4.1073   -3.3923    0.0070 H         1 <0>         0.0000
     27 H9          2.8104   -4.4334    0.6119 H         1 <0>         0.0000
     28 H10         0.2365   -2.3181   -3.8090 H         1 <0>         0.0000
     29 H11        -0.5361   -2.9728   -5.9619 H         1 <0>         0.0000
     30 H12        -1.6713   -2.2975   -8.0667 H         1 <0>         0.0000
     31 H13        -2.4537    0.0670   -8.2889 H         1 <0>         0.0000
     32 H14        -1.0657    1.0497   -4.5443 H         1 <0>         0.0000
@<TRIPOS>BOND
     1    1    5 1
     2    1    2 2
     3    2    3 1
     4    3    4 1
     5    4    9 1
     6    4    5 2
     7    5    6 1
     8    6    7 1
     9    7    8 1
    10    8    9 1
    11    1   10 1
    12   10   11 am
    13   11   12 1
    14   12   17 ar
    15   12   13 ar
    16   13   14 ar
    17   14   15 ar
    18   15   16 ar
    19   16   17 ar
    20   10   18 2
    21    2   19 1
    22    6   20 1
    23    6   21 1
    24    7   22 1
    25    7   23 1
    26    8   24 1
    27    8   25 1
    28    9   26 1
    29    9   27 1
    30   11   28 1
    31   13   29 1
    32   14   30 1
    33   15   31 1
    34   17   32 1
@<TRIPOS>MOLECULE
(7660886)_1_6
   32    34     0     0     0
SMALL
NO_CHARGES
 
mmff94s_NoEstat = 45.10
@<TRIPOS>ATOM
      1 C1          0.8294   -1.2051   -1.6569 C.2       1 <0>         0.0000
      2 C2          0.6264   -0.8070   -0.3531 C.2       1 <0>         0.0000
      3 S1          1.5122   -1.7635    0.7574 S.3       1 <0>         0.0000
      4 C3          2.1623   -2.7104   -0.4991 C.2       1 <0>         0.0000
      5 C4          1.7258   -2.3119   -1.7483 C.2       1 <0>         0.0000
      6 C5          2.1536   -3.0106   -3.0017 C.3       1 <0>         0.0000
      7 C6          3.3943   -3.8874   -2.7702 C.3       1 <0>         0.0000
      8 C7          3.2692   -4.7165   -1.4836 C.3       1 <0>         0.0000
      9 C8          3.1293   -3.8231   -0.2407 C.3       1 <0>         0.0000
     10 C9          0.1896   -0.5418   -2.7639 C.2       1 <0>         0.0000
     11 N1         -0.0753   -1.3528   -3.8820 N.am      1 <0>         0.0000
     12 C10        -0.7183   -1.0063   -5.0968 C.ar      1 <0>         0.0000
     13 C11        -1.1781    0.2775   -5.2951 C.ar      1 <0>         0.0000
     14 C12        -1.8050    0.5877   -6.4968 C.ar      1 <0>         0.0000
     15 C13        -1.9354   -0.4196   -7.4393 C.ar      1 <0>         0.0000
     16 N2         -1.4906   -1.6839   -7.2621 N.ar      1 <0>         0.0000
     17 C14        -0.8861   -1.9479   -6.0820 C.ar      1 <0>         0.0000
     18 O1         -0.1301    0.6589   -2.7020 O.2       1 <0>         0.0000
     19 H1          0.0003    0.0006   -0.0013 H         1 <0>         0.0000
     20 H2          1.3250   -3.6401   -3.3494 H         1 <0>         0.0000
     21 H3          2.3636   -2.2806   -3.7917 H         1 <0>         0.0000
     22 H4          3.5389   -4.5502   -3.6308 H         1 <0>         0.0000
     23 H5          4.2863   -3.2515   -2.7014 H         1 <0>         0.0000
     24 H6          2.3926   -5.3722   -1.5647 H         1 <0>         0.0000
     25 H7          4.1445   -5.3660   -1.3695 H         1 <0>         0.0000
     26 H8          4.1073   -3.3923    0.0070 H         1 <0>         0.0000
     27 H9          2.8104   -4.4334    0.6119 H         1 <0>         0.0000
     28 H10         0.2365   -2.3181   -3.8090 H         1 <0>         0.0000
     29 H11        -1.0621    1.0473   -4.5369 H         1 <0>         0.0000
     30 H12        -2.1804    1.5862   -6.6895 H         1 <0>         0.0000
     31 H13        -2.4170   -0.2291   -8.3928 H         1 <0>         0.0000
     32 H14        -0.5403   -2.9711   -5.9691 H         1 <0>         0.0000
@<TRIPOS>BOND
     1    1    5 1
     2    1    2 2
     3    2    3 1
     4    3    4 1
     5    4    9 1
     6    4    5 2
     7    5    6 1
     8    6    7 1
     9    7    8 1
    10    8    9 1
    11    1   10 1
    12   10   11 am
    13   11   12 1
    14   12   17 ar
    15   12   13 ar
    16   13   14 ar
    17   14   15 ar
    18   15   16 ar
    19   16   17 ar
    20   10   18 2
    21    2   19 1
    22    6   20 1
    23    6   21 1
    24    7   22 1
    25    7   23 1
    26    8   24 1
    27    8   25 1
    28    9   26 1
    29    9   27 1
    30   11   28 1
    31   13   29 1
    32   14   30 1
    33   15   31 1
    34   17   32 1
@<TRIPOS>MOLECULE
(7660887)_1_1
   32    34     0     0     0
SMALL
NO_CHARGES
 
mmff94s_NoEstat = 53.67
@<TRIPOS>ATOM
      1 N1          1.4671   -1.5186    0.4776 N.am      1 <0>         0.0000
      2 C1          1.0423   -0.2701    0.0978 C.2       1 <0>         0.0000
      3 N2          2.0725    0.5127   -0.1220 N.2       1 <0>         0.0000
      4 C2          3.1258   -0.3063    0.1506 C.2       1 <0>         0.0000
      5 N3          2.8157   -1.5475    0.5264 N.2       1 <0>         0.0000
      6 C3          4.4820    0.1516    0.0407 C.ar      1 <0>         0.0000
      7 C4          4.7456    1.4623   -0.3571 C.ar      1 <0>         0.0000
      8 C5          6.0633    1.9072   -0.4636 C.ar      1 <0>         0.0000
      9 C6          7.1175    1.0414   -0.1723 C.ar      1 <0>         0.0000
     10 C7          6.8539   -0.2693    0.2256 C.ar      1 <0>         0.0000
     11 C8          5.5362   -0.7142    0.3320 C.ar      1 <0>         0.0000
     12 N4         -0.2747    0.0192   -0.0142 N.pl3     1 <0>         0.0000
     13 C9          0.7001   -2.6299    0.8332 C.2       1 <0>         0.0000
     14 C10         1.2449   -3.9457    1.2320 C.ar      1 <0>         0.0000
     15 C11         1.4813   -4.9168    0.2642 C.ar      1 <0>         0.0000
     16 C12         1.9951   -6.1578    0.6404 C.ar      1 <0>         0.0000
     17 C13         2.2698   -6.4212    1.9824 C.ar      1 <0>         0.0000
     18 C14         2.0306   -5.4436    2.9481 C.ar      1 <0>         0.0000
     19 C15         1.5168   -4.2026    2.5719 C.ar      1 <0>         0.0000
     20 F1          2.7620   -7.6134    2.3438 F         1 <0>         0.0000
     21 O1         -0.5178   -2.4795    0.8197 O.2       1 <0>         0.0000
     22 H1          3.9346    2.1495   -0.5874 H         1 <0>         0.0000
     23 H2          6.2686    2.9278   -0.7732 H         1 <0>         0.0000
     24 H3          8.1434    1.3878   -0.2561 H         1 <0>         0.0000
     25 H4          7.6748   -0.9433    0.4516 H         1 <0>         0.0000
     26 H5          5.3473   -1.7391    0.6430 H         1 <0>         0.0000
     27 H6         -0.9994   -0.6484    0.2284 H         1 <0>         0.0000
     28 H7         -0.6061    0.9188   -0.3469 H         1 <0>         0.0000
     29 H8          1.2711   -4.7223   -0.7843 H         1 <0>         0.0000
     30 H9          2.1806   -6.9200   -0.1110 H         1 <0>         0.0000
     31 H10         2.2460   -5.6488    3.9924 H         1 <0>         0.0000
     32 H11         1.3353   -3.4478    3.3329 H         1 <0>         0.0000
@<TRIPOS>BOND
     1    1    5 1
     2    1    2 1
     3    2    3 2
     4    3    4 1
     5    4    5 2
     6    4    6 1
     7    6   11 ar
     8    6    7 ar
     9    7    8 ar
    10    8    9 ar
    11    9   10 ar
    12   10   11 ar
    13    2   12 1
    14    1   13 am
    15   13   14 1
    16   14   19 ar
    17   14   15 ar
    18   15   16 ar
    19   16   17 ar
    20   17   18 ar
    21   18   19 ar
    22   17   20 1
    23   13   21 2
    24    7   22 1
    25    8   23 1
    26    9   24 1
    27   10   25 1
    28   11   26 1
    29   12   27 1
    30   12   28 1
    31   15   29 1
    32   16   30 1
    33   18   31 1
    34   19   32 1

