@<TRIPOS>MOLECULE
jp_1_1
 41 42 0 0 0
SMALL
USER_CHARGES
****
VDW energy = no energy computed
@<TRIPOS>ATOM
      1 C1          4.6678   -8.7531   -5.3914 C.2     1  <O>1        0.3485
      2 O1          5.5036   -9.6327   -5.2468 O.2     1  <O>1       -0.2465
      3 O2          5.0460   -7.4519   -5.3875 O.3     1  <O>1       -0.4779
      4 C2          3.2310   -9.1120   -5.5720 C.3     1  <O>1        0.2004
      5 C3          2.4160   -8.4990   -4.4610 C.3     1  <O>1       -0.0145
      6 C4          2.7450   -8.5870   -6.9000 C.3     1  <O>1       -0.0145
      7 O3          3.0880  -10.5220   -5.5410 O.3     1  <O>1       -0.4738
      8 C5          1.7730  -10.8510   -5.7060 C.ar    1  <O>1        0.1389
      9 C6          1.4000  -12.1970   -5.7080 C.ar    1  <O>1        0.0366
     10 C7          0.0560  -12.5420   -5.8890 C.ar    1  <O>1       -0.0013
     11 C8         -0.9090  -11.5460   -6.0640 C.ar    1  <O>1       -0.0218
     12 C9         -0.5200  -10.2020   -6.0530 C.ar    1  <O>1       -0.0013
     13 C10         0.8170   -9.8470   -5.8720 C.ar    1  <O>1        0.0366
     14 C11        -2.3280  -11.9030   -6.2590 C.3     1  <O>1        0.0506
     15 C12        -3.1360  -10.6590   -6.4190 C.2     1  <O>1        0.2216
     16 O4         -2.5910   -9.5670   -6.3770 O.2     1  <O>1       -0.2751
     17 N1         -4.4890  -10.7420   -6.6120 N.am    1  <O>1       -0.2842
     18 C13        -5.2460   -9.5800   -6.7600 C.ar    1  <O>1        0.0496
     19 C14        -6.6350   -9.6580   -6.9580 C.ar    1  <O>1        0.0095
     20 C15        -7.3910   -8.4930   -7.1180 C.ar    1  <O>1       -0.0329
     21 C16        -6.7700   -7.2420   -7.0800 C.ar    1  <O>1       -0.0103
     22 C17        -5.3880   -7.1630   -6.8780 C.ar    1  <O>1       -0.0329
     23 C18        -4.6260   -8.3200   -6.7140 C.ar    1  <O>1        0.0095
     24 C19        -4.7370   -5.8400   -6.8380 C.3     1  <O>1       -0.0385
     25 C20        -8.8490   -8.5870   -7.3290 C.3     1  <O>1       -0.0385
     26 H1          4.2668   -6.8879   -5.5131 H       1  <O>1        0.2952
     27 H2          1.3660   -8.7610   -4.5940 H       1  <O>1        0.0273
     28 H3          2.5260   -7.4150   -4.4860 H       1  <O>1        0.0273
     29 H4          2.7670   -8.8780   -3.5020 H       1  <O>1        0.0273
     30 H5          1.6960   -8.8490   -7.0320 H       1  <O>1        0.0273
     31 H6          3.3340   -9.0300   -7.7030 H       1  <O>1        0.0273
     32 H7          2.8550   -7.5030   -6.9250 H       1  <O>1        0.0273
     33 H8         -2.6850  -12.4590   -5.3920 H       1  <O>1        0.0407
     34 H9         -2.4280  -12.5190   -7.1520 H       1  <O>1        0.0407
     35 H10        -4.9440  -11.6550   -6.6450 H       1  <O>1        0.1548
     36 H11        -3.6680   -5.9650   -6.6740 H       1  <O>1        0.0278
     37 H12        -5.1640   -5.2480   -6.0270 H       1  <O>1        0.0278
     38 H13        -4.9010   -5.3250   -7.7860 H       1  <O>1        0.0278
     39 H14        -9.2660   -7.5860   -7.4330 H       1  <O>1        0.0278
     40 H15        -9.3080   -9.0860   -6.4740 H       1  <O>1        0.0278
     41 H16        -9.0470   -9.1600   -8.2330 H       1  <O>1        0.0278
@<TRIPOS>BOND
     1     1     2    2
     2     1     3    1
     3     1     4    1
     4     4     5    1
     5     4     6    1
     6     4     7    1
     7     7     8    1
     8     8     9   ar
     9     9    10   ar
    10    10    11   ar
    11    11    12   ar
    12    12    13   ar
    13     8    13   ar
    14    11    14    1
    15    14    15    1
    16    15    16    2
    17    15    17   am
    18    17    18    1
    19    18    19   ar
    20    19    20   ar
    21    20    21   ar
    22    21    22   ar
    23    22    23   ar
    24    18    23   ar
    25    22    24    1
    26    20    25    1
    27     3    26    1
    28     5    27    1
    29     5    28    1
    30     5    29    1
    31     6    30    1
    32     6    31    1
    33     6    32    1
    34    14    33    1
    35    14    34    1
    36    17    35    1
    37    24    36    1
    38    24    37    1
    39    24    38    1
    40    25    39    1
    41    25    40    1
    42    25    41    1
@<TRIPOS>MOLECULE
jp_1_1
 41 42 0 0 0
SMALL
USER_CHARGES
****
VDW energy = no energy computed
@<TRIPOS>ATOM
      1 C1          4.6678   -8.7531   -5.3914 C.2     1  <O>1        0.3485
      2 O1          5.5036   -9.6327   -5.2468 O.2     1  <O>1       -0.2465
      3 O2          5.0460   -7.4519   -5.3875 O.3     1  <O>1       -0.4779
      4 C2          3.2310   -9.1120   -5.5720 C.3     1  <O>1        0.2004
      5 C3          2.4160   -8.4990   -4.4610 C.3     1  <O>1       -0.0145
      6 C4          2.7450   -8.5870   -6.9000 C.3     1  <O>1       -0.0145
      7 O3          3.0880  -10.5220   -5.5410 O.3     1  <O>1       -0.4738
      8 C5          1.7730  -10.8510   -5.7060 C.ar    1  <O>1        0.1389
      9 C6          1.4000  -12.1970   -5.7080 C.ar    1  <O>1        0.0366
     10 C7          0.0560  -12.5420   -5.8890 C.ar    1  <O>1       -0.0013
     11 C8         -0.9090  -11.5460   -6.0640 C.ar    1  <O>1       -0.0218
     12 C9         -0.5200  -10.2020   -6.0530 C.ar    1  <O>1       -0.0013
     13 C10         0.8170   -9.8470   -5.8720 C.ar    1  <O>1        0.0366
     14 C11        -2.3280  -11.9030   -6.2590 C.3     1  <O>1        0.0506
     15 C12        -3.1360  -10.6590   -6.4190 C.2     1  <O>1        0.2216
     16 O4         -2.5910   -9.5670   -6.3770 O.2     1  <O>1       -0.2751
     17 N1         -4.4890  -10.7420   -6.6120 N.am    1  <O>1       -0.2842
     18 C13        -5.2460   -9.5800   -6.7600 C.ar    1  <O>1        0.0496
     19 C14        -6.6350   -9.6580   -6.9580 C.ar    1  <O>1        0.0095
     20 C15        -7.3910   -8.4930   -7.1180 C.ar    1  <O>1       -0.0329
     21 C16        -6.7700   -7.2420   -7.0800 C.ar    1  <O>1       -0.0103
     22 C17        -5.3880   -7.1630   -6.8780 C.ar    1  <O>1       -0.0329
     23 C18        -4.6260   -8.3200   -6.7140 C.ar    1  <O>1        0.0095
     24 C19        -4.7370   -5.8400   -6.8380 C.3     1  <O>1       -0.0385
     25 C20        -8.8490   -8.5870   -7.3290 C.3     1  <O>1       -0.0385
     26 H1          4.2668   -6.8879   -5.5131 H       1  <O>1        0.2952
     27 H2          1.3660   -8.7610   -4.5940 H       1  <O>1        0.0273
     28 H3          2.5260   -7.4150   -4.4860 H       1  <O>1        0.0273
     29 H4          2.7670   -8.8780   -3.5020 H       1  <O>1        0.0273
     30 H5          1.6960   -8.8490   -7.0320 H       1  <O>1        0.0273
     31 H6          3.3340   -9.0300   -7.7030 H       1  <O>1        0.0273
     32 H7          2.8550   -7.5030   -6.9250 H       1  <O>1        0.0273
     33 H8         -2.6850  -12.4590   -5.3920 H       1  <O>1        0.0407
     34 H9         -2.4280  -12.5190   -7.1520 H       1  <O>1        0.0407
     35 H10        -4.9440  -11.6550   -6.6450 H       1  <O>1        0.1548
     36 H11        -3.6680   -5.9650   -6.6740 H       1  <O>1        0.0278
     37 H12        -5.1640   -5.2480   -6.0270 H       1  <O>1        0.0278
     38 H13        -4.9010   -5.3250   -7.7860 H       1  <O>1        0.0278
     39 H14        -9.2660   -7.5860   -7.4330 H       1  <O>1        0.0278
     40 H15        -9.3080   -9.0860   -6.4740 H       1  <O>1        0.0278
     41 H16        -9.0470   -9.1600   -8.2330 H       1  <O>1        0.0278
@<TRIPOS>BOND
     1     1     2    2
     2     1     3    1
     3     1     4    1
     4     4     5    1
     5     4     6    1
     6     4     7    1
     7     7     8    1
     8     8     9   ar
     9     9    10   ar
    10    10    11   ar
    11    11    12   ar
    12    12    13   ar
    13     8    13   ar
    14    11    14    1
    15    14    15    1
    16    15    16    2
    17    15    17   am
    18    17    18    1
    19    18    19   ar
    20    19    20   ar
    21    20    21   ar
    22    21    22   ar
    23    22    23   ar
    24    18    23   ar
    25    22    24    1
    26    20    25    1
    27     3    26    1
    28     5    27    1
    29     5    28    1
    30     5    29    1
    31     6    30    1
    32     6    31    1
    33     6    32    1
    34    14    33    1
    35    14    34    1
    36    17    35    1
    37    24    36    1
    38    24    37    1
    39    24    38    1
    40    25    39    1
    41    25    40    1
    42    25    41    1
@<TRIPOS>MOLECULE
jp_1_1
 41 42 0 0 0
SMALL
USER_CHARGES
****
VDW energy = no energy computed
@<TRIPOS>ATOM
      1 C1          4.6678   -8.7531   -5.3914 C.2     1  <O>1        0.3485
      2 O1          5.5036   -9.6327   -5.2468 O.2     1  <O>1       -0.2465
      3 O2          5.0460   -7.4519   -5.3875 O.3     1  <O>1       -0.4779
      4 C2          3.2310   -9.1120   -5.5720 C.3     1  <O>1        0.2004
      5 C3          2.4160   -8.4990   -4.4610 C.3     1  <O>1       -0.0145
      6 C4          2.7450   -8.5870   -6.9000 C.3     1  <O>1       -0.0145
      7 O3          3.0880  -10.5220   -5.5410 O.3     1  <O>1       -0.4738
      8 C5          1.7730  -10.8510   -5.7060 C.ar    1  <O>1        0.1389
      9 C6          1.4000  -12.1970   -5.7080 C.ar    1  <O>1        0.0366
     10 C7          0.0560  -12.5420   -5.8890 C.ar    1  <O>1       -0.0013
     11 C8         -0.9090  -11.5460   -6.0640 C.ar    1  <O>1       -0.0218
     12 C9         -0.5200  -10.2020   -6.0530 C.ar    1  <O>1       -0.0013
     13 C10         0.8170   -9.8470   -5.8720 C.ar    1  <O>1        0.0366
     14 C11        -2.3280  -11.9030   -6.2590 C.3     1  <O>1        0.0506
     15 C12        -3.1360  -10.6590   -6.4190 C.2     1  <O>1        0.2216
     16 O4         -2.5910   -9.5670   -6.3770 O.2     1  <O>1       -0.2751
     17 N1         -4.4890  -10.7420   -6.6120 N.am    1  <O>1       -0.2842
     18 C13        -5.2460   -9.5800   -6.7600 C.ar    1  <O>1        0.0496
     19 C14        -6.6350   -9.6580   -6.9580 C.ar    1  <O>1        0.0095
     20 C15        -7.3910   -8.4930   -7.1180 C.ar    1  <O>1       -0.0329
     21 C16        -6.7700   -7.2420   -7.0800 C.ar    1  <O>1       -0.0103
     22 C17        -5.3880   -7.1630   -6.8780 C.ar    1  <O>1       -0.0329
     23 C18        -4.6260   -8.3200   -6.7140 C.ar    1  <O>1        0.0095
     24 C19        -4.7370   -5.8400   -6.8380 C.3     1  <O>1       -0.0385
     25 C20        -8.8490   -8.5870   -7.3290 C.3     1  <O>1       -0.0385
     26 H1          4.2668   -6.8879   -5.5131 H       1  <O>1        0.2952
     27 H2          1.3660   -8.7610   -4.5940 H       1  <O>1        0.0273
     28 H3          2.5260   -7.4150   -4.4860 H       1  <O>1        0.0273
     29 H4          2.7670   -8.8780   -3.5020 H       1  <O>1        0.0273
     30 H5          1.6960   -8.8490   -7.0320 H       1  <O>1        0.0273
     31 H6          3.3340   -9.0300   -7.7030 H       1  <O>1        0.0273
     32 H7          2.8550   -7.5030   -6.9250 H       1  <O>1        0.0273
     33 H8         -2.6850  -12.4590   -5.3920 H       1  <O>1        0.0407
     34 H9         -2.4280  -12.5190   -7.1520 H       1  <O>1        0.0407
     35 H10        -4.9440  -11.6550   -6.6450 H       1  <O>1        0.1548
     36 H11        -3.6680   -5.9650   -6.6740 H       1  <O>1        0.0278
     37 H12        -5.1640   -5.2480   -6.0270 H       1  <O>1        0.0278
     38 H13        -4.9010   -5.3250   -7.7860 H       1  <O>1        0.0278
     39 H14        -9.2660   -7.5860   -7.4330 H       1  <O>1        0.0278
     40 H15        -9.3080   -9.0860   -6.4740 H       1  <O>1        0.0278
     41 H16        -9.0470   -9.1600   -8.2330 H       1  <O>1        0.0278
@<TRIPOS>BOND
     1     1     2    2
     2     1     3    1
     3     1     4    1
     4     4     5    1
     5     4     6    1
     6     4     7    1
     7     7     8    1
     8     8     9   ar
     9     9    10   ar
    10    10    11   ar
    11    11    12   ar
    12    12    13   ar
    13     8    13   ar
    14    11    14    1
    15    14    15    1
    16    15    16    2
    17    15    17   am
    18    17    18    1
    19    18    19   ar
    20    19    20   ar
    21    20    21   ar
    22    21    22   ar
    23    22    23   ar
    24    18    23   ar
    25    22    24    1
    26    20    25    1
    27     3    26    1
    28     5    27    1
    29     5    28    1
    30     5    29    1
    31     6    30    1
    32     6    31    1
    33     6    32    1
    34    14    33    1
    35    14    34    1
    36    17    35    1
    37    24    36    1
    38    24    37    1
    39    24    38    1
    40    25    39    1
    41    25    40    1
    42    25    41    1
@<TRIPOS>MOLECULE
jp_1_1
 41 42 0 0 0
SMALL
USER_CHARGES
****
VDW energy = no energy computed
@<TRIPOS>ATOM
      1 C1          4.6678   -8.7531   -5.3914 C.2     1  <O>1        0.3485
      2 O1          5.5036   -9.6327   -5.2468 O.2     1  <O>1       -0.2465
      3 O2          5.0460   -7.4519   -5.3875 O.3     1  <O>1       -0.4779
      4 C2          3.2310   -9.1120   -5.5720 C.3     1  <O>1        0.2004
      5 C3          2.4160   -8.4990   -4.4610 C.3     1  <O>1       -0.0145
      6 C4          2.7450   -8.5870   -6.9000 C.3     1  <O>1       -0.0145
      7 O3          3.0880  -10.5220   -5.5410 O.3     1  <O>1       -0.4738
      8 C5          1.7730  -10.8510   -5.7060 C.ar    1  <O>1        0.1389
      9 C6          1.4000  -12.1970   -5.7080 C.ar    1  <O>1        0.0366
     10 C7          0.0560  -12.5420   -5.8890 C.ar    1  <O>1       -0.0013
     11 C8         -0.9090  -11.5460   -6.0640 C.ar    1  <O>1       -0.0218
     12 C9         -0.5200  -10.2020   -6.0530 C.ar    1  <O>1       -0.0013
     13 C10         0.8170   -9.8470   -5.8720 C.ar    1  <O>1        0.0366
     14 C11        -2.3280  -11.9030   -6.2590 C.3     1  <O>1        0.0506
     15 C12        -3.1360  -10.6590   -6.4190 C.2     1  <O>1        0.2216
     16 O4         -2.5910   -9.5670   -6.3770 O.2     1  <O>1       -0.2751
     17 N1         -4.4890  -10.7420   -6.6120 N.am    1  <O>1       -0.2842
     18 C13        -5.2460   -9.5800   -6.7600 C.ar    1  <O>1        0.0496
     19 C14        -6.6350   -9.6580   -6.9580 C.ar    1  <O>1        0.0095
     20 C15        -7.3910   -8.4930   -7.1180 C.ar    1  <O>1       -0.0329
     21 C16        -6.7700   -7.2420   -7.0800 C.ar    1  <O>1       -0.0103
     22 C17        -5.3880   -7.1630   -6.8780 C.ar    1  <O>1       -0.0329
     23 C18        -4.6260   -8.3200   -6.7140 C.ar    1  <O>1        0.0095
     24 C19        -4.7370   -5.8400   -6.8380 C.3     1  <O>1       -0.0385
     25 C20        -8.8490   -8.5870   -7.3290 C.3     1  <O>1       -0.0385
     26 H1          4.2668   -6.8879   -5.5131 H       1  <O>1        0.2952
     27 H2          1.3660   -8.7610   -4.5940 H       1  <O>1        0.0273
     28 H3          2.5260   -7.4150   -4.4860 H       1  <O>1        0.0273
     29 H4          2.7670   -8.8780   -3.5020 H       1  <O>1        0.0273
     30 H5          1.6960   -8.8490   -7.0320 H       1  <O>1        0.0273
     31 H6          3.3340   -9.0300   -7.7030 H       1  <O>1        0.0273
     32 H7          2.8550   -7.5030   -6.9250 H       1  <O>1        0.0273
     33 H8         -2.6850  -12.4590   -5.3920 H       1  <O>1        0.0407
     34 H9         -2.4280  -12.5190   -7.1520 H       1  <O>1        0.0407
     35 H10        -4.9440  -11.6550   -6.6450 H       1  <O>1        0.1548
     36 H11        -3.6680   -5.9650   -6.6740 H       1  <O>1        0.0278
     37 H12        -5.1640   -5.2480   -6.0270 H       1  <O>1        0.0278
     38 H13        -4.9010   -5.3250   -7.7860 H       1  <O>1        0.0278
     39 H14        -9.2660   -7.5860   -7.4330 H       1  <O>1        0.0278
     40 H15        -9.3080   -9.0860   -6.4740 H       1  <O>1        0.0278
     41 H16        -9.0470   -9.1600   -8.2330 H       1  <O>1        0.0278
@<TRIPOS>BOND
     1     1     2    2
     2     1     3    1
     3     1     4    1
     4     4     5    1
     5     4     6    1
     6     4     7    1
     7     7     8    1
     8     8     9   ar
     9     9    10   ar
    10    10    11   ar
    11    11    12   ar
    12    12    13   ar
    13     8    13   ar
    14    11    14    1
    15    14    15    1
    16    15    16    2
    17    15    17   am
    18    17    18    1
    19    18    19   ar
    20    19    20   ar
    21    20    21   ar
    22    21    22   ar
    23    22    23   ar
    24    18    23   ar
    25    22    24    1
    26    20    25    1
    27     3    26    1
    28     5    27    1
    29     5    28    1
    30     5    29    1
    31     6    30    1
    32     6    31    1
    33     6    32    1
    34    14    33    1
    35    14    34    1
    36    17    35    1
    37    24    36    1
    38    24    37    1
    39    24    38    1
    40    25    39    1
    41    25    40    1
    42    25    41    1
@<TRIPOS>MOLECULE
jp_1_1
 41 42 0 0 0
SMALL
USER_CHARGES
****
VDW energy = no energy computed
@<TRIPOS>ATOM
      1 C1          4.6678   -8.7531   -5.3914 C.2     1  <O>1        0.3485
      2 O1          5.5036   -9.6327   -5.2468 O.2     1  <O>1       -0.2465
      3 O2          5.0460   -7.4519   -5.3875 O.3     1  <O>1       -0.4779
      4 C2          3.2310   -9.1120   -5.5720 C.3     1  <O>1        0.2004
      5 C3          2.4160   -8.4990   -4.4610 C.3     1  <O>1       -0.0145
      6 C4          2.7450   -8.5870   -6.9000 C.3     1  <O>1       -0.0145
      7 O3          3.0880  -10.5220   -5.5410 O.3     1  <O>1       -0.4738
      8 C5          1.7730  -10.8510   -5.7060 C.ar    1  <O>1        0.1389
      9 C6          1.4000  -12.1970   -5.7080 C.ar    1  <O>1        0.0366
     10 C7          0.0560  -12.5420   -5.8890 C.ar    1  <O>1       -0.0013
     11 C8         -0.9090  -11.5460   -6.0640 C.ar    1  <O>1       -0.0218
     12 C9         -0.5200  -10.2020   -6.0530 C.ar    1  <O>1       -0.0013
     13 C10         0.8170   -9.8470   -5.8720 C.ar    1  <O>1        0.0366
     14 C11        -2.3280  -11.9030   -6.2590 C.3     1  <O>1        0.0506
     15 C12        -3.1360  -10.6590   -6.4190 C.2     1  <O>1        0.2216
     16 O4         -2.5910   -9.5670   -6.3770 O.2     1  <O>1       -0.2751
     17 N1         -4.4890  -10.7420   -6.6120 N.am    1  <O>1       -0.2842
     18 C13        -5.2460   -9.5800   -6.7600 C.ar    1  <O>1        0.0496
     19 C14        -6.6350   -9.6580   -6.9580 C.ar    1  <O>1        0.0095
     20 C15        -7.3910   -8.4930   -7.1180 C.ar    1  <O>1       -0.0329
     21 C16        -6.7700   -7.2420   -7.0800 C.ar    1  <O>1       -0.0103
     22 C17        -5.3880   -7.1630   -6.8780 C.ar    1  <O>1       -0.0329
     23 C18        -4.6260   -8.3200   -6.7140 C.ar    1  <O>1        0.0095
     24 C19        -4.7370   -5.8400   -6.8380 C.3     1  <O>1       -0.0385
     25 C20        -8.8490   -8.5870   -7.3290 C.3     1  <O>1       -0.0385
     26 H1          4.2668   -6.8879   -5.5131 H       1  <O>1        0.2952
     27 H2          1.3660   -8.7610   -4.5940 H       1  <O>1        0.0273
     28 H3          2.5260   -7.4150   -4.4860 H       1  <O>1        0.0273
     29 H4          2.7670   -8.8780   -3.5020 H       1  <O>1        0.0273
     30 H5          1.6960   -8.8490   -7.0320 H       1  <O>1        0.0273
     31 H6          3.3340   -9.0300   -7.7030 H       1  <O>1        0.0273
     32 H7          2.8550   -7.5030   -6.9250 H       1  <O>1        0.0273
     33 H8         -2.6850  -12.4590   -5.3920 H       1  <O>1        0.0407
     34 H9         -2.4280  -12.5190   -7.1520 H       1  <O>1        0.0407
     35 H10        -4.9440  -11.6550   -6.6450 H       1  <O>1        0.1548
     36 H11        -3.6680   -5.9650   -6.6740 H       1  <O>1        0.0278
     37 H12        -5.1640   -5.2480   -6.0270 H       1  <O>1        0.0278
     38 H13        -4.9010   -5.3250   -7.7860 H       1  <O>1        0.0278
     39 H14        -9.2660   -7.5860   -7.4330 H       1  <O>1        0.0278
     40 H15        -9.3080   -9.0860   -6.4740 H       1  <O>1        0.0278
     41 H16        -9.0470   -9.1600   -8.2330 H       1  <O>1        0.0278
@<TRIPOS>BOND
     1     1     2    2
     2     1     3    1
     3     1     4    1
     4     4     5    1
     5     4     6    1
     6     4     7    1
     7     7     8    1
     8     8     9   ar
     9     9    10   ar
    10    10    11   ar
    11    11    12   ar
    12    12    13   ar
    13     8    13   ar
    14    11    14    1
    15    14    15    1
    16    15    16    2
    17    15    17   am
    18    17    18    1
    19    18    19   ar
    20    19    20   ar
    21    20    21   ar
    22    21    22   ar
    23    22    23   ar
    24    18    23   ar
    25    22    24    1
    26    20    25    1
    27     3    26    1
    28     5    27    1
    29     5    28    1
    30     5    29    1
    31     6    30    1
    32     6    31    1
    33     6    32    1
    34    14    33    1
    35    14    34    1
    36    17    35    1
    37    24    36    1
    38    24    37    1
    39    24    38    1
    40    25    39    1
    41    25    40    1
    42    25    41    1
