@<TRIPOS>MOLECULE
dummy
 48 49 0 0 0
SMALL
USER_CHARGES
****
VDW energy = -9.17
@<TRIPOS>ATOM
      1 C1          4.6680   -8.7530   -5.3910 C.2       1<O>11         0.3485
      2 O1          5.5040   -9.6330   -5.2470 O.2       1<O>11        -0.2465
      3 O2          5.0460   -7.4520   -5.3870 O.3       1<O>11        -0.4779
      4 C2          3.2310   -9.1120   -5.5720 C.3       1<O>11         0.2003
      5 C3          3.1290  -10.4820   -6.1940 C.3       1<O>11        -0.0145
      6 C4          2.5420   -9.1160   -4.2300 C.3       1<O>11        -0.0145
      7 O3          2.6090   -8.1610   -6.4190 O.3       1<O>11        -0.4751
      8 C5          1.2930   -8.4890   -6.5850 C.ar      1<O>11         0.1221
      9 C6          0.3440   -7.9790   -5.6970 C.ar      1<O>11        -0.0196
     10 C7         -1.0040   -8.3210   -5.8530 C.ar      1<O>11        -0.0547
     11 C8         -1.3990   -9.1660   -6.8940 C.ar      1<O>11        -0.0384
     12 C9         -0.4370   -9.6640   -7.7790 C.ar      1<O>11        -0.0547
     13 C10         0.9100   -9.3280   -7.6330 C.ar      1<O>11        -0.0196
     14 C11        -2.8190   -9.5340   -7.0620 C.3       1<O>11         0.0494
     15 C12        -3.4870   -8.5410   -7.9540 C.2       1<O>11         0.2215
     16 O4         -2.8490   -7.6070   -8.4140 O.2       1<O>11        -0.2751
     17 N1         -4.8160   -8.6770   -8.2550 N.am      1<O>11        -0.2852
     18 C13        -5.4420   -7.7490   -9.0860 C.ar      1<O>11         0.0339
     19 C14        -4.9890   -7.5570  -10.4030 C.ar      1<O>11        -0.0375
     20 C15        -5.6100   -6.6180  -11.2310 C.ar      1<O>11        -0.0484
     21 C16        -6.6880   -5.8660  -10.7570 C.ar      1<O>11        -0.0558
     22 C17        -7.1430   -6.0610   -9.4480 C.ar      1<O>11        -0.0484
     23 C18        -6.5310   -6.9970   -8.6150 C.ar      1<O>11        -0.0375
     24 C19        -8.2810   -5.2650   -8.9520 C.3       1<O>11        -0.0396
     25 C20        -5.1240   -6.4210  -12.6110 C.3       1<O>11        -0.0396
     26 H1          4.2670   -6.8880   -5.5130 H         1<O>11         0.2952
     27 H2          2.0790  -10.7440   -6.3250 H         1<O>11         0.0273
     28 H3          3.6070  -11.2130   -5.5410 H         1<O>11         0.0273
     29 H4          3.6270  -10.4790   -7.1620 H         1<O>11         0.0273
     30 H5          1.4930   -9.3780   -4.3620 H         1<O>11         0.0273
     31 H6          2.6150   -8.1260   -3.7810 H         1<O>11         0.0273
     32 H7          3.0200   -9.8470   -3.5780 H         1<O>11         0.0273
     33 H8         -3.3110   -9.5380   -6.0900 H         1<O>11         0.0407
     34 H9         -2.8860  -10.5260   -7.5080 H         1<O>11         0.0407
     35 H10        -5.3480   -9.4570   -7.8680 H         1<O>11         0.1548
     36 H11        -8.4990   -5.5430   -7.9220 H         1<O>11         0.0278
     37 H12        -9.1570   -5.4540   -9.5740 H         1<O>11         0.0278
     38 H13        -8.0300   -4.2040   -8.9950 H         1<O>11         0.0278
     39 H14        -5.7240   -5.6550  -13.1020 H         1<O>11         0.0278
     40 H15        -5.2080   -7.3590  -13.1630 H         1<O>11         0.0278
     41 H16        -4.0820   -6.1070  -12.5860 H         1<O>11         0.0278
     42 H17         0.6350   -7.3530   -4.9300 H         1<O>11         0.0654
     43 H18        -1.7080   -7.9480   -5.1980 H         1<O>11         0.0622
     44 H19        -0.7260  -10.2870   -8.5490 H         1<O>11         0.0622
     45 H20         1.6130   -9.6960   -8.2920 H         1<O>11         0.0654
     46 H21        -4.1950   -8.1110  -10.7590 H         1<O>11         0.0639
     47 H22        -7.1460   -5.1710  -11.3680 H         1<O>11         0.0623
     48 H23        -6.8780   -7.1380   -7.6530 H         1<O>11         0.0639
@<TRIPOS>BOND
     1    1    2 2
     2    1    3 1
     3    1    4 1
     4    4    5 1
     5    4    6 1
     6    4    7 1
     7    7    8 1
     8    8    9 ar
     9    9   10 ar
    10   10   11 ar
    11   11   12 ar
    12   12   13 ar
    13    8   13 ar
    14   11   14 1
    15   14   15 1
    16   15   16 2
    17   15   17 am
    18   17   18 1
    19   18   19 ar
    20   19   20 ar
    21   20   21 ar
    22   21   22 ar
    23   22   23 ar
    24   18   23 ar
    25   22   24 1
    26   20   25 1
    27    3   26 1
    28    5   27 1
    29    5   28 1
    30    5   29 1
    31    6   30 1
    32    6   31 1
    33    6   32 1
    34   14   33 1
    35   14   34 1
    36   17   35 1
    37   24   36 1
    38   24   37 1
    39   24   38 1
    40   25   39 1
    41   25   40 1
    42   25   41 1
    43    9   42 1
    44   10   43 1
    45   12   44 1
    46   13   45 1
    47   19   46 1
    48   21   47 1
    49   23   48 1
