@<TRIPOS>MOLECULE
dummy
 48 49 0 0 0
SMALL
USER_CHARGES
****
VDW energy = -9.17
@<TRIPOS>ATOM
   1 C1        4.6678    -8.7531    -5.3914  C.2     1  <O>11       0.3485
   2 O1        5.5036    -9.6327    -5.2468  O.2     1  <O>11      -0.2465
   3 O2        5.0460    -7.4519    -5.3875  O.3     1  <O>11      -0.4779
   4 C2        3.2310    -9.1120    -5.5720  C.3     1  <O>11       0.2003
   5 C3        3.1292   -10.4823    -6.1935  C.3     1  <O>11      -0.0145
   6 C4        2.5417    -9.1165    -4.2303  C.3     1  <O>11      -0.0145
   7 O3        2.6086    -8.1610    -6.4191  O.3     1  <O>11      -0.4751
   8 C5        1.2935    -8.4892    -6.5850  C.ar    1  <O>11       0.1221
   9 C6        0.3442    -7.9787    -5.6967  C.ar    1  <O>11      -0.0196
  10 C7       -1.0037    -8.3208    -5.8531  C.ar    1  <O>11      -0.0547
  11 C8       -1.3992    -9.1662    -6.8937  C.ar    1  <O>11      -0.0384
  12 C9       -0.4367    -9.6639    -7.7790  C.ar    1  <O>11      -0.0547
  13 C10       0.9095    -9.3281    -7.6329  C.ar    1  <O>11      -0.0196
  14 C11      -2.8188    -9.5339    -7.0624  C.3     1  <O>11       0.0494
  15 C12      -3.4868    -8.5414    -7.9538  C.2     1  <O>11       0.2215
  16 O4       -2.8490    -7.6074    -8.4143  O.2     1  <O>11      -0.2751
  17 N1       -4.8156    -8.6775    -8.2547  N.am    1  <O>11      -0.2852
  18 C13      -5.4420    -7.7495    -9.0864  C.ar    1  <O>11       0.0339
  19 C14      -4.9893    -7.5567   -10.4026  C.ar    1  <O>11      -0.0375
  20 C15      -5.6104    -6.6178   -11.2315  C.ar    1  <O>11      -0.0484
  21 C16      -6.6880    -5.8658   -10.7568  C.ar    1  <O>11      -0.0558
  22 C17      -7.1427    -6.0605    -9.4482  C.ar    1  <O>11      -0.0484
  23 C18      -6.5312    -6.9975    -8.6150  C.ar    1  <O>11      -0.0375
  24 C19      -8.2810    -5.2646    -8.9518  C.3     1  <O>11      -0.0396
  25 C20      -5.1241    -6.4210   -12.6114  C.3     1  <O>11      -0.0396
  26 H1        4.2668    -6.8879    -5.5131  H       1  <O>11       0.2952
  27 H2        2.0789   -10.7443    -6.3245  H       1  <O>11       0.0273
  28 H3        3.6073   -11.2129    -5.5413  H       1  <O>11       0.0273
  29 H4        3.6270   -10.4791    -7.1623  H       1  <O>11       0.0273
  30 H5        1.4927    -9.3785    -4.3620  H       1  <O>11       0.0273
  31 H6        2.6153    -8.1262    -3.7810  H       1  <O>11       0.0273
  32 H7        3.0198    -9.8471    -3.5780  H       1  <O>11       0.0273
  33 H8       -3.3110    -9.5376    -6.0897  H       1  <O>11       0.0407
  34 H9       -2.8864   -10.5260    -7.5075  H       1  <O>11       0.0407
  35 H10      -5.3485    -9.4572    -7.8678  H       1  <O>11       0.1548
  36 H11      -8.4988    -5.5435    -7.9222  H       1  <O>11       0.0278
  37 H12      -9.1570    -5.4536    -9.5743  H       1  <O>11       0.0278
  38 H13      -8.0295    -4.2036    -8.9949  H       1  <O>11       0.0278
  39 H14      -5.7241    -5.6554   -13.1019  H       1  <O>11       0.0278
  40 H15      -5.2080    -7.3588   -13.1629  H       1  <O>11       0.0278
  41 H16      -4.0823    -6.1067   -12.5859  H       1  <O>11       0.0278
  42 H17       0.6350    -7.3528    -4.9295  H       1  <O>11       0.0654
  43 H18      -1.7082    -7.9476    -5.1978  H       1  <O>11       0.0622
  44 H19      -0.7262   -10.2869    -8.5492  H       1  <O>11       0.0622
  45 H20       1.6134    -9.6956    -8.2920  H       1  <O>11       0.0654
  46 H21      -4.1947    -8.1106   -10.7590  H       1  <O>11       0.0639
  47 H22      -7.1456    -5.1710   -11.3676  H       1  <O>11       0.0623
  48 H23      -6.8784    -7.1380    -7.6534  H       1  <O>11       0.0639
@<TRIPOS>BOND
     1     1     2    2
     2     1     3    1
     3     1     4    1
     4     4     5    1
     5     4     6    1
     6     4     7    1
     7     7     8    1
     8     8     9   ar
     9     9    10   ar
    10    10    11   ar
    11    11    12   ar
    12    12    13   ar
    13     8    13   ar
    14    11    14    1
    15    14    15    1
    16    15    16    2
    17    15    17   am
    18    17    18    1
    19    18    19   ar
    20    19    20   ar
    21    20    21   ar
    22    21    22   ar
    23    22    23   ar
    24    18    23   ar
    25    22    24    1
    26    20    25    1
    27     3    26    1
    28     5    27    1
    29     5    28    1
    30     5    29    1
    31     6    30    1
    32     6    31    1
    33     6    32    1
    34    14    33    1
    35    14    34    1
    36    17    35    1
    37    24    36    1
    38    24    37    1
    39    24    38    1
    40    25    39    1
    41    25    40    1
    42    25    41    1
    43     9    42    1
    44    10    43    1
    45    12    44    1
    46    13    45    1
    47    19    46    1
    48    21    47    1
    49    23    48    1
