

@<TRIPOS>MOLECULE
1$ERinh1_1_ERRpdb_raloxifen
 61 65 1 0 0
SMALL
USER_CHARGES

mmff94s_NoEstat = 78.58
@<TRIPOS>ATOM
      1 C1         28.8228   -2.4469   26.6882 C.ar      1 <1>        -0.0494
      2 C2         27.4210   -2.3698   26.7748 C.ar      1 <1>        -0.0195
      3 C3         26.8025   -1.1789   27.2061 C.ar      1 <1>         0.1180
      4 O1         25.3970   -1.1119   27.3373 O.3       1 <1>        -0.5067
      5 C4         27.5889   -0.0705   27.5688 C.ar      1 <1>        -0.0058
      6 C5         28.9859   -0.1667   27.4921 C.ar      1 <1>         0.0241
      7 S1         30.1430    1.1044   28.0341 S.3       1 <1>        -0.0874
      8 C6         31.4617   -0.0552   27.5709 C.2       1 <1>         0.0313
      9 C7         32.8894    0.2428   27.7717 C.ar      1 <1>        -0.0104
     10 C8         33.4636    0.0929   29.0458 C.ar      1 <1>        -0.0501
     11 C9         34.8522    0.2265   29.2001 C.ar      1 <1>        -0.0196
     12 C10        35.6599    0.5247   28.1038 C.ar      1 <1>         0.1169
     13 O2         37.0333    0.7781   28.2860 O.3       1 <1>        -0.5068
     14 C11        35.0945    0.6139   26.8320 C.ar      1 <1>        -0.0196
     15 C12        33.7114    0.4877   26.6581 C.ar      1 <1>        -0.0501
     16 C13        29.5974   -1.3283   27.0247 C.ar      1 <1>         0.0008
     17 C14        31.0610   -1.2201   27.0347 C.2       1 <1>         0.0447
     18 C15        32.0483   -2.2470   26.5834 C.2       1 <1>         0.1948
     19 O3         32.8131   -2.7167   27.4661 O.2       1 <1>        -0.2866
     20 C16        32.2724   -2.6330   25.1585 C.ar      1 <1>         0.0225
     21 C17        31.4782   -2.1417   24.1007 C.ar      1 <1>        -0.0475
     22 C18        31.7497   -2.5289   22.7757 C.ar      1 <1>        -0.0193
     23 C19        32.8429   -3.3486   22.4773 C.ar      1 <1>         0.1206
     24 C20        33.6357   -3.8395   23.5165 C.ar      1 <1>        -0.0193
     25 C21        33.3521   -3.4886   24.8427 C.ar      1 <1>        -0.0475
     26 O4         33.0558   -3.8062   21.1514 O.3       1 <1>        -0.4907
     27 C22        33.9117   -2.8851   20.4355 C.3       1 <1>         0.1022
     28 C23        34.3565   -3.5024   19.1092 C.3       1 <1>         0.0331
     29 N1         35.0700   -2.5252   18.2134 N.3       1 <1>        -0.2991
     30 C24        36.3665   -2.0428   18.7898 C.3       1 <1>        -0.0010
     31 C25        37.0676   -1.0330   17.8763 C.3       1 <1>        -0.0402
     32 C26        37.2552   -1.6047   16.4704 C.3       1 <1>        -0.0507
     33 C27        35.9147   -2.0810   15.9065 C.3       1 <1>        -0.0402
     34 C28        35.2542   -3.0992   16.8424 C.3       1 <1>        -0.0010
     35 H1         29.3023   -3.3735   26.3954 H         1 <1>         0.0625
     36 H2         26.8096   -3.2330   26.5155 H         1 <1>         0.0654
     37 H3         25.0264   -1.2339   26.3741 H         1 <1>         0.2921
     38 H4         27.1183    0.8430   27.9235 H         1 <1>         0.0665
     39 H5         32.8445   -0.1692   29.9020 H         1 <1>         0.0625
     40 H6         35.3364    0.0722   30.1545 H         1 <1>         0.0654
     41 H7         37.4367   -0.1054   28.6445 H         1 <1>         0.2921
     42 H8         35.7352    0.8040   25.9865 H         1 <1>         0.0654
     43 H9         33.2843    0.5637   25.6589 H         1 <1>         0.0625
     44 H10        30.6351   -1.4811   24.2935 H         1 <1>         0.0626
     45 H11        31.1061   -2.2187   21.9623 H         1 <1>         0.0654
     46 H12        34.4636   -4.5076   23.2896 H         1 <1>         0.0654
     47 H13        33.9850   -3.8954   25.6247 H         1 <1>         0.0626
     48 H14        33.3545   -1.9497   20.2074 H         1 <1>         0.0709
     49 H15        34.8146   -2.6585   21.0466 H         1 <1>         0.0709
     50 H16        34.9972   -4.3904   19.3211 H         1 <1>         0.0460
     51 H17        33.4314   -3.8688   18.6025 H         1 <1>         0.0460
     52 H18        36.1585   -1.5015   19.7324 H         1 <1>         0.0427
     53 H19        37.0469   -2.8990   19.0096 H         1 <1>         0.0427
     54 H20        36.4488   -0.1060   17.8175 H         1 <1>         0.0278
     55 H21        38.0579   -0.7620   18.3104 H         1 <1>         0.0278
     56 H22        37.6731   -0.8131   15.8077 H         1 <1>         0.0266
     57 H23        37.9720   -2.4576   16.5043 H         1 <1>         0.0266
     58 H24        35.2396   -1.2009   15.8020 H         1 <1>         0.0278
     59 H25        36.0646   -2.5353   14.9001 H         1 <1>         0.0278
     60 H26        35.8736   -4.0266   16.8859 H         1 <1>         0.0427
     61 H27        34.2619   -3.3677   16.4086 H         1 <1>         0.0427
@<TRIPOS>BOND
     1    1    2 ar
     2    1   16 ar
     3    1   35 1
     4    2    3 ar
     5    2   36 1
     6    3    4 1
     7    3    5 ar
     8    4   37 1
     9    5    6 ar
    10    5   38 1
    11    6    7 1
    12    6   16 ar
    13    7    8 1
    14    8    9 1
    15    8   17 2
    16    9   10 ar
    17    9   15 ar
    18   10   11 ar
    19   10   39 1
    20   11   12 ar
    21   11   40 1
    22   12   13 1
    23   12   14 ar
    24   13   41 1
    25   14   15 ar
    26   14   42 1
    27   15   43 1
    28   16   17 1
    29   17   18 1
    30   18   19 2
    31   18   20 1
    32   20   21 ar
    33   20   25 ar
    34   21   22 ar
    35   21   44 1
    36   22   23 ar
    37   22   45 1
    38   23   24 ar
    39   23   26 1
    40   24   25 ar
    41   24   46 1
    42   25   47 1
    43   26   27 1
    44   27   28 1
    45   27   48 1
    46   27   49 1
    47   28   29 1
    48   28   50 1
    49   28   51 1
    50   29   30 1
    51   29   34 1
    52   30   31 1
    53   30   52 1
    54   30   53 1
    55   31   32 1
    56   31   54 1
    57   31   55 1
    58   32   33 1
    59   32   56 1
    60   32   57 1
    61   33   34 1
    62   33   58 1
    63   33   59 1
    64   34   60 1
    65   34   61 1
@<TRIPOS>MOLECULE
2$ER_1_ERRpdb_raloxifen
 61 65 1 0 0
SMALL
USER_CHARGES

mmff94s_NoEstat = 78.58
@<TRIPOS>ATOM
      1 C1         28.9046   -2.6312   26.8199 C.ar      1 <1>        -0.0494
      2 C2         27.5011   -2.5884   26.8907 C.ar      1 <1>        -0.0195
      3 C3         26.8572   -1.4409   27.3984 C.ar      1 <1>         0.1180
      4 O1         25.4489   -1.3658   27.4639 O.3       1 <1>        -0.5067
      5 C4         27.6178   -0.3586   27.8649 C.ar      1 <1>        -0.0058
      6 C5         29.0136   -0.4269   27.8110 C.ar      1 <1>         0.0241
      7 S1         30.1246    0.8362   28.4466 S.3       1 <1>        -0.0874
      8 C6         31.4637   -0.2326   27.8579 C.2       1 <1>         0.0313
      9 C7         32.8679    0.1547   27.9789 C.ar      1 <1>        -0.0104
     10 C8         33.5826   -0.0854   29.1637 C.ar      1 <1>        -0.0501
     11 C9         34.9573    0.1920   29.2122 C.ar      1 <1>        -0.0196
     12 C10        35.6013    0.7205   28.0914 C.ar      1 <1>         0.1169
     13 O2         36.9562    1.0845   28.1581 O.3       1 <1>        -0.5068
     14 C11        34.9030    0.8411   26.8893 C.ar      1 <1>        -0.0196
     15 C12        33.5345    0.5957   26.8291 C.ar      1 <1>        -0.0501
     16 C13        29.6536   -1.5353   27.2616 C.ar      1 <1>         0.0008
     17 C14        31.1117   -1.3838   27.2668 C.2       1 <1>         0.0447
     18 C15        32.1446   -2.3309   26.7312 C.2       1 <1>         0.1948
     19 O3         32.9726   -2.7875   27.5637 O.2       1 <1>        -0.2866
     20 C16        32.3262   -2.6638   25.2878 C.ar      1 <1>         0.0225
     21 C17        31.4785   -2.1525   24.2867 C.ar      1 <1>        -0.0475
     22 C18        31.6781   -2.5085   22.9433 C.ar      1 <1>        -0.0193
     23 C19        32.7406   -3.3472   22.5586 C.ar      1 <1>         0.1206
     24 C20        33.6255   -3.7971   23.5424 C.ar      1 <1>        -0.0193
     25 C21        33.4086   -3.4800   24.8906 C.ar      1 <1>        -0.0475
     26 O4         32.9340   -3.8136   21.2243 O.3       1 <1>        -0.4907
     27 C22        32.8204   -2.7922   20.1988 C.3       1 <1>         0.1022
     28 C23        33.0064   -3.3825   18.7980 C.3       1 <1>         0.0331
     29 N1         34.2980   -4.1016   18.5410 N.3       1 <1>        -0.2991
     30 C24        34.2701   -4.7109   17.1704 C.3       1 <1>        -0.0010
     31 C25        35.5139   -5.5669   16.9208 C.3       1 <1>        -0.0402
     32 C26        36.7942   -4.7582   17.1532 C.3       1 <1>        -0.0507
     33 C27        36.7870   -4.1014   18.5378 C.3       1 <1>        -0.0402
     34 C28        35.5204   -3.2638   18.7509 C.3       1 <1>        -0.0010
     35 H1         29.4086   -3.5050   26.4359 H         1 <1>         0.0625
     36 H2         26.9133   -3.4372   26.5438 H         1 <1>         0.0654
     37 H3         25.1382   -1.4455   26.4747 H         1 <1>         0.2921
     38 H4         27.1251    0.5209   28.2657 H         1 <1>         0.0665
     39 H5         33.0838   -0.5209   30.0255 H         1 <1>         0.0625
     40 H6         35.5435   -0.0045   30.1037 H         1 <1>         0.0654
     41 H7         36.9594    1.9690   28.6962 H         1 <1>         0.2921
     42 H8         35.4124    1.1772   26.0081 H         1 <1>         0.0654
     43 H9         33.0030    0.7276   25.8861 H         1 <1>         0.0625
     44 H10        30.6427   -1.5032   24.5386 H         1 <1>         0.0626
     45 H11        30.9686   -2.1699   22.2048 H         1 <1>         0.0654
     46 H12        34.4586   -4.4379   23.2605 H         1 <1>         0.0654
     47 H13        34.0956   -3.8852   25.6263 H         1 <1>         0.0626
     48 H14        31.7927   -2.3687   20.1885 H         1 <1>         0.0709
     49 H15        33.5504   -1.9728   20.3694 H         1 <1>         0.0709
     50 H16        32.1649   -4.1044   18.6582 H         1 <1>         0.0460
     51 H17        32.8741   -2.5597   18.0556 H         1 <1>         0.0460
     52 H18        33.3779   -5.3743   17.0660 H         1 <1>         0.0427
     53 H19        34.2007   -3.9162   16.3890 H         1 <1>         0.0427
     54 H20        35.4923   -6.4413   17.6127 H         1 <1>         0.0278
     55 H21        35.4944   -5.9480   15.8737 H         1 <1>         0.0278
     56 H22        37.6734   -5.4365   17.0725 H         1 <1>         0.0266
     57 H23        36.8821   -3.9715   16.3679 H         1 <1>         0.0266
     58 H24        36.8266   -4.8963   19.3201 H         1 <1>         0.0278
     59 H25        37.6862   -3.4540   18.6515 H         1 <1>         0.0278
     60 H26        35.5169   -2.3852   18.0634 H         1 <1>         0.0427
     61 H27        35.5549   -2.8943   19.8009 H         1 <1>         0.0427
@<TRIPOS>BOND
     1    1    2 ar
     2    1   16 ar
     3    1   35 1
     4    2    3 ar
     5    2   36 1
     6    3    4 1
     7    3    5 ar
     8    4   37 1
     9    5    6 ar
    10    5   38 1
    11    6    7 1
    12    6   16 ar
    13    7    8 1
    14    8    9 1
    15    8   17 2
    16    9   10 ar
    17    9   15 ar
    18   10   11 ar
    19   10   39 1
    20   11   12 ar
    21   11   40 1
    22   12   13 1
    23   12   14 ar
    24   13   41 1
    25   14   15 ar
    26   14   42 1
    27   15   43 1
    28   16   17 1
    29   17   18 1
    30   18   19 2
    31   18   20 1
    32   20   21 ar
    33   20   25 ar
    34   21   22 ar
    35   21   44 1
    36   22   23 ar
    37   22   45 1
    38   23   24 ar
    39   23   26 1
    40   24   25 ar
    41   24   46 1
    42   25   47 1
    43   26   27 1
    44   27   28 1
    45   27   48 1
    46   27   49 1
    47   28   29 1
    48   28   50 1
    49   28   51 1
    50   29   30 1
    51   29   34 1
    52   30   31 1
    53   30   52 1
    54   30   53 1
    55   31   32 1
    56   31   54 1
    57   31   55 1
    58   32   33 1
    59   32   56 1
    60   32   57 1
    61   33   34 1
    62   33   58 1
    63   33   59 1
    64   34   60 1
    65   34   61 1
@<TRIPOS>MOLECULE
3$ERinh_1_ERRpdb_raloxifen
 61 65 1 0 0
SMALL
USER_CHARGES

mmff94s_NoEstat = 78.58
@<TRIPOS>ATOM
      1 C1         34.2954   -1.3186   26.7813 C.ar      1 <1>        -0.0494
      2 C2         35.5471   -0.7509   27.0466 C.ar      1 <1>        -0.0195
      3 C3         35.6494    0.3341   27.9149 C.ar      1 <1>         0.1180
      4 O1         36.9034    0.9281   28.1606 O.3       1 <1>        -0.5067
      5 C4         34.4969    0.8662   28.4938 C.ar      1 <1>        -0.0058
      6 C5         33.2424    0.2992   28.2115 C.ar      1 <1>         0.0241
      7 S1         31.6888    0.8625   28.9051 S.3       1 <1>        -0.0874
      8 C6         30.8774   -0.4130   27.9026 C.2       1 <1>         0.0313
      9 C7         29.3954   -0.4565   27.9137 C.ar      1 <1>        -0.0104
     10 C8         28.6796    0.6509   27.4251 C.ar      1 <1>        -0.0501
     11 C9         27.2859    0.5886   27.3104 C.ar      1 <1>        -0.0196
     12 C10        26.5951   -0.5858   27.6378 C.ar      1 <1>         0.1169
     13 O2         25.1919   -0.6672   27.4672 O.3       1 <1>        -0.5068
     14 C11        27.2868   -1.6505   28.2244 C.ar      1 <1>        -0.0196
     15 C12        28.6796   -1.5793   28.3745 C.ar      1 <1>        -0.0501
     16 C13        33.1213   -0.7811   27.3413 C.ar      1 <1>         0.0008
     17 C14        31.7035   -1.1951   27.1474 C.2       1 <1>         0.0447
     18 C15        31.2049   -2.2641   26.1952 C.2       1 <1>         0.1948
     19 O3         30.1129   -2.8337   26.4205 O.2       1 <1>        -0.2866
     20 C16        31.8737   -2.6255   24.9339 C.ar      1 <1>         0.0225
     21 C17        31.3973   -2.0583   23.7423 C.ar      1 <1>        -0.0475
     22 C18        31.9823   -2.4065   22.5204 C.ar      1 <1>        -0.0193
     23 C19        33.1240   -3.2245   22.4727 C.ar      1 <1>         0.1206
     24 C20        33.5432   -3.8529   23.6521 C.ar      1 <1>        -0.0193
     25 C21        32.8848   -3.5954   24.8656 C.ar      1 <1>        -0.0475
     26 O4         33.8832   -3.4548   21.2879 O.3       1 <1>        -0.4907
     27 C22        33.0854   -3.5920   20.0765 C.3       1 <1>         0.1022
     28 C23        33.9502   -4.0983   18.9154 C.3       1 <1>         0.0331
     29 N1         35.3519   -3.5586   18.8818 N.3       1 <1>        -0.2991
     30 C24        36.1559   -4.1915   17.7889 C.3       1 <1>        -0.0010
     31 C25        37.6319   -3.7909   17.9077 C.3       1 <1>        -0.0402
     32 C26        37.7882   -2.2651   17.9352 C.3       1 <1>        -0.0507
     33 C27        36.8935   -1.6370   18.9982 C.3       1 <1>        -0.0402
     34 C28        35.4363   -2.0632   18.8263 C.3       1 <1>        -0.0010
     35 H1         34.2917   -2.1841   26.1610 H         1 <1>         0.0625
     36 H2         36.4411   -1.1766   26.5997 H         1 <1>         0.0654
     37 H3         37.1303    0.7186   29.1502 H         1 <1>         0.2921
     38 H4         34.6130    1.7096   29.1532 H         1 <1>         0.0665
     39 H5         29.2055    1.5484   27.1014 H         1 <1>         0.0625
     40 H6         26.7491    1.4468   26.9326 H         1 <1>         0.0654
     41 H7         25.0757   -1.0946   26.5233 H         1 <1>         0.2921
     42 H8         26.7449   -2.5416   28.5357 H         1 <1>         0.0654
     43 H9         29.2169   -2.4193   28.7972 H         1 <1>         0.0625
     44 H10        30.5458   -1.3775   23.7588 H         1 <1>         0.0626
     45 H11        31.5455   -2.0451   21.6068 H         1 <1>         0.0654
     46 H12        34.3918   -4.5254   23.6144 H         1 <1>         0.0654
     47 H13        33.1967   -4.1289   25.7655 H         1 <1>         0.0626
     48 H14        32.2262   -4.2911   20.2282 H         1 <1>         0.0709
     49 H15        32.6894   -2.5966   19.7702 H         1 <1>         0.0709
     50 H16        33.9967   -5.2070   19.0243 H         1 <1>         0.0460
     51 H17        33.4261   -3.8734   17.9561 H         1 <1>         0.0460
     52 H18        36.0932   -5.3026   17.8644 H         1 <1>         0.0427
     53 H19        35.7592   -3.8883   16.7904 H         1 <1>         0.0427
     54 H20        38.0463   -4.2197   18.8504 H         1 <1>         0.0278
     55 H21        38.2041   -4.2125   17.0502 H         1 <1>         0.0278
     56 H22        38.8326   -1.9968   18.1971 H         1 <1>         0.0266
     57 H23        37.5433   -1.8395   16.9342 H         1 <1>         0.0266
     58 H24        37.2488   -1.9897   19.9942 H         1 <1>         0.0278
     59 H25        36.9766   -0.5263   18.9525 H         1 <1>         0.0278
     60 H26        35.0251   -1.6725   17.8657 H         1 <1>         0.0427
     61 H27        34.8660   -1.6009   19.6634 H         1 <1>         0.0427
@<TRIPOS>BOND
     1    1    2 ar
     2    1   16 ar
     3    1   35 1
     4    2    3 ar
     5    2   36 1
     6    3    4 1
     7    3    5 ar
     8    4   37 1
     9    5    6 ar
    10    5   38 1
    11    6    7 1
    12    6   16 ar
    13    7    8 1
    14    8    9 1
    15    8   17 2
    16    9   10 ar
    17    9   15 ar
    18   10   11 ar
    19   10   39 1
    20   11   12 ar
    21   11   40 1
    22   12   13 1
    23   12   14 ar
    24   13   41 1
    25   14   15 ar
    26   14   42 1
    27   15   43 1
    28   16   17 1
    29   17   18 1
    30   18   19 2
    31   18   20 1
    32   20   21 ar
    33   20   25 ar
    34   21   22 ar
    35   21   44 1
    36   22   23 ar
    37   22   45 1
    38   23   24 ar
    39   23   26 1
    40   24   25 ar
    41   24   46 1
    42   25   47 1
    43   26   27 1
    44   27   28 1
    45   27   48 1
    46   27   49 1
    47   28   29 1
    48   28   50 1
    49   28   51 1
    50   29   30 1
    51   29   34 1
    52   30   31 1
    53   30   52 1
    54   30   53 1
    55   31   32 1
    56   31   54 1
    57   31   55 1
    58   32   33 1
    59   32   56 1
    60   32   57 1
    61   33   34 1
    62   33   58 1
    63   33   59 1
    64   34   60 1
    65   34   61 1
